<?xml version='1.0' encoding='utf-8'?>
<routes>
  <trip id="0" depart="0.08" from="93631344" to="850757718" type="DEFAULT_VEHTYPE" fromTaz="T1_680_1" toTaz="T1_17_1" departLane="free" departSpeed="max"/>
  <trip id="1974" depart="0.12" from="93631240" to="343498596" type="DEFAULT_VEHTYPE" fromTaz="T1_680_1" toTaz="T1_280_1" departLane="free" departSpeed="max"/>
  <trip id="4018" depart="0.15" from="861090333" to="530490479#0" type="DEFAULT_VEHTYPE" fromTaz="T1_880_1" toTaz="T1_280_1" departLane="free" departSpeed="max"/>
  <trip id="3273" depart="0.20" from="861090333" to="966059358" type="DEFAULT_VEHTYPE" fromTaz="T1_880_1" toTaz="T1_17_1" departLane="free" departSpeed="max"/>
  <trip id="1" depart="0.23" from="93631344" to="850757718" type="DEFAULT_VEHTYPE" fromTaz="T1_680_1" toTaz="T1_17_1" departLane="free" departSpeed="max"/>
  <trip id="1975" depart="0.35" from="93631240" to="343498596" type="DEFAULT_VEHTYPE" fromTaz="T1_680_1" toTaz="T1_280_1" departLane="free" departSpeed="max"/>
  <trip id="2" depart="0.38" from="93631344" to="850757718" type="DEFAULT_VEHTYPE" fromTaz="T1_680_1" toTaz="T1_17_1" departLane="free" departSpeed="max"/>
  <trip id="4019" depart="0.44" from="861090333" to="530490479#0" type="DEFAULT_VEHTYPE" fromTaz="T1_880_1" toTaz="T1_280_1" departLane="free" departSpeed="max"/>
  <trip id="3" depart="0.53" from="93631344" to="850757718" type="DEFAULT_VEHTYPE" fromTaz="T1_680_1" toTaz="T1_17_1" departLane="free" departSpeed="max"/>
  <trip id="1976" depart="0.58" from="93631240" to="343498596" type="DEFAULT_VEHTYPE" fromTaz="T1_680_1" toTaz="T1_280_1" departLane="free" departSpeed="max"/>
  <trip id="3274" depart="0.60" from="861090333" to="966059358" type="DEFAULT_VEHTYPE" fromTaz="T1_880_1" toTaz="T1_17_1" departLane="free" departSpeed="max"/>
  <trip id="4" depart="0.68" from="93631344" to="850757718" type="DEFAULT_VEHTYPE" fromTaz="T1_680_1" toTaz="T1_17_1" departLane="free" departSpeed="max"/>
  <trip id="4020" depart="0.74" from="861090333" to="530490479#0" type="DEFAULT_VEHTYPE" fromTaz="T1_880_1" toTaz="T1_280_1" departLane="free" departSpeed="max"/>
  <trip id="1977" depart="0.81" from="93631240" to="343498596" type="DEFAULT_VEHTYPE" fromTaz="T1_680_1" toTaz="T1_280_1" departLane="free" departSpeed="max"/>
  <trip id="5" depart="0.84" from="93631344" to="850757718" type="DEFAULT_VEHTYPE" fromTaz="T1_680_1" toTaz="T1_17_1" departLane="free" departSpeed="max"/>
  <trip id="6" depart="0.99" from="93631344" to="850757718" type="DEFAULT_VEHTYPE" fromTaz="T1_680_1" toTaz="T1_17_1" departLane="free" departSpeed="max"/>
  <trip id="3275" depart="1.01" from="861090333" to="966059358" type="DEFAULT_VEHTYPE" fromTaz="T1_880_1" toTaz="T1_17_1" departLane="free" departSpeed="max"/>
  <trip id="1978" depart="1.04" from="93631240" to="343498596" type="DEFAULT_VEHTYPE" fromTaz="T1_680_1" toTaz="T1_280_1" departLane="free" departSpeed="max"/>
  <trip id="4021" depart="1.04" from="861090333" to="530490479#0" type="DEFAULT_VEHTYPE" fromTaz="T1_880_1" toTaz="T1_280_1" departLane="free" departSpeed="max"/>
  <trip id="7" depart="1.14" from="93631344" to="850757718" type="DEFAULT_VEHTYPE" fromTaz="T1_680_1" toTaz="T1_17_1" departLane="free" departSpeed="max"/>
  <trip id="1979" depart="1.27" from="93631240" to="343498596" type="DEFAULT_VEHTYPE" fromTaz="T1_680_1" toTaz="T1_280_1" departLane="free" departSpeed="max"/>
  <trip id="8" depart="1.29" from="93631344" to="850757718" type="DEFAULT_VEHTYPE" fromTaz="T1_680_1" toTaz="T1_17_1" departLane="free" departSpeed="max"/>
  <trip id="4022" depart="1.33" from="861090333" to="530490479#0" type="DEFAULT_VEHTYPE" fromTaz="T1_880_1" toTaz="T1_280_1" departLane="free" departSpeed="max"/>
  <trip id="3276" depart="1.41" from="861090333" to="966059358" type="DEFAULT_VEHTYPE" fromTaz="T1_880_1" toTaz="T1_17_1" departLane="free" departSpeed="max"/>
  <trip id="9" depart="1.44" from="93631344" to="850757718" type="DEFAULT_VEHTYPE" fromTaz="T1_680_1" toTaz="T1_17_1" departLane="free" departSpeed="max"/>
  <trip id="1980" depart="1.50" from="93631240" to="343498596" type="DEFAULT_VEHTYPE" fromTaz="T1_680_1" toTaz="T1_280_1" departLane="free" departSpeed="max"/>
  <trip id="10" depart="1.60" from="93631344" to="850757718" type="DEFAULT_VEHTYPE" fromTaz="T1_680_1" toTaz="T1_17_1" departLane="free" departSpeed="max"/>
  <trip id="4023" depart="1.63" from="861090333" to="530490479#0" type="DEFAULT_VEHTYPE" fromTaz="T1_880_1" toTaz="T1_280_1" departLane="free" departSpeed="max"/>
  <trip id="1981" depart="1.73" from="93631240" to="343498596" type="DEFAULT_VEHTYPE" fromTaz="T1_680_1" toTaz="T1_280_1" departLane="free" departSpeed="max"/>
  <trip id="11" depart="1.75" from="93631344" to="850757718" type="DEFAULT_VEHTYPE" fromTaz="T1_680_1" toTaz="T1_17_1" departLane="free" departSpeed="max"/>
  <trip id="3277" depart="1.81" from="861090333" to="966059358" type="DEFAULT_VEHTYPE" fromTaz="T1_880_1" toTaz="T1_17_1" departLane="free" departSpeed="max"/>
  <trip id="12" depart="1.90" from="93631344" to="850757718" type="DEFAULT_VEHTYPE" fromTaz="T1_680_1" toTaz="T1_17_1" departLane="free" departSpeed="max"/>
  <trip id="4024" depart="1.92" from="861090333" to="530490479#0" type="DEFAULT_VEHTYPE" fromTaz="T1_880_1" toTaz="T1_280_1" departLane="free" departSpeed="max"/>
  <trip id="1982" depart="1.96" from="93631240" to="343498596" type="DEFAULT_VEHTYPE" fromTaz="T1_680_1" toTaz="T1_280_1" departLane="free" departSpeed="max"/>
  <trip id="13" depart="2.05" from="93631344" to="850757718" type="DEFAULT_VEHTYPE" fromTaz="T1_680_1" toTaz="T1_17_1" departLane="free" departSpeed="max"/>
  <trip id="1983" depart="2.19" from="93631240" to="343498596" type="DEFAULT_VEHTYPE" fromTaz="T1_680_1" toTaz="T1_280_1" departLane="free" departSpeed="max"/>
  <trip id="14" depart="2.20" from="93631344" to="850757718" type="DEFAULT_VEHTYPE" fromTaz="T1_680_1" toTaz="T1_17_1" departLane="free" departSpeed="max"/>
  <trip id="3278" depart="2.21" from="861090333" to="966059358" type="DEFAULT_VEHTYPE" fromTaz="T1_880_1" toTaz="T1_17_1" departLane="free" departSpeed="max"/>
  <trip id="4025" depart="2.22" from="861090333" to="530490479#0" type="DEFAULT_VEHTYPE" fromTaz="T1_880_1" toTaz="T1_280_1" departLane="free" departSpeed="max"/>
  <trip id="15" depart="2.36" from="93631344" to="850757718" type="DEFAULT_VEHTYPE" fromTaz="T1_680_1" toTaz="T1_17_1" departLane="free" departSpeed="max"/>
  <trip id="1984" depart="2.42" from="93631240" to="343498596" type="DEFAULT_VEHTYPE" fromTaz="T1_680_1" toTaz="T1_280_1" departLane="free" departSpeed="max"/>
  <trip id="4026" depart="2.51" from="861090333" to="530490479#0" type="DEFAULT_VEHTYPE" fromTaz="T1_880_1" toTaz="T1_280_1" departLane="free" departSpeed="max"/>
  <trip id="16" depart="2.51" from="93631344" to="850757718" type="DEFAULT_VEHTYPE" fromTaz="T1_680_1" toTaz="T1_17_1" departLane="free" departSpeed="max"/>
  <trip id="3279" depart="2.62" from="861090333" to="966059358" type="DEFAULT_VEHTYPE" fromTaz="T1_880_1" toTaz="T1_17_1" departLane="free" departSpeed="max"/>
  <trip id="1985" depart="2.66" from="93631240" to="343498596" type="DEFAULT_VEHTYPE" fromTaz="T1_680_1" toTaz="T1_280_1" departLane="free" departSpeed="max"/>
  <trip id="17" depart="2.66" from="93631344" to="850757718" type="DEFAULT_VEHTYPE" fromTaz="T1_680_1" toTaz="T1_17_1" departLane="free" departSpeed="max"/>
  <trip id="4027" depart="2.81" from="861090333" to="530490479#0" type="DEFAULT_VEHTYPE" fromTaz="T1_880_1" toTaz="T1_280_1" departLane="free" departSpeed="max"/>
  <trip id="18" depart="2.81" from="93631344" to="850757718" type="DEFAULT_VEHTYPE" fromTaz="T1_680_1" toTaz="T1_17_1" departLane="free" departSpeed="max"/>
  <trip id="1986" depart="2.89" from="93631240" to="343498596" type="DEFAULT_VEHTYPE" fromTaz="T1_680_1" toTaz="T1_280_1" departLane="free" departSpeed="max"/>
  <trip id="19" depart="2.96" from="93631344" to="850757718" type="DEFAULT_VEHTYPE" fromTaz="T1_680_1" toTaz="T1_17_1" departLane="free" departSpeed="max"/>
  <trip id="3280" depart="3.02" from="861090333" to="966059358" type="DEFAULT_VEHTYPE" fromTaz="T1_880_1" toTaz="T1_17_1" departLane="free" departSpeed="max"/>
  <trip id="4028" depart="3.11" from="861090333" to="530490479#0" type="DEFAULT_VEHTYPE" fromTaz="T1_880_1" toTaz="T1_280_1" departLane="free" departSpeed="max"/>
  <trip id="20" depart="3.12" from="93631344" to="850757718" type="DEFAULT_VEHTYPE" fromTaz="T1_680_1" toTaz="T1_17_1" departLane="free" departSpeed="max"/>
  <trip id="1987" depart="3.12" from="93631240" to="343498596" type="DEFAULT_VEHTYPE" fromTaz="T1_680_1" toTaz="T1_280_1" departLane="free" departSpeed="max"/>
  <trip id="21" depart="3.27" from="93631344" to="850757718" type="DEFAULT_VEHTYPE" fromTaz="T1_680_1" toTaz="T1_17_1" departLane="free" departSpeed="max"/>
  <trip id="1988" depart="3.35" from="93631240" to="343498596" type="DEFAULT_VEHTYPE" fromTaz="T1_680_1" toTaz="T1_280_1" departLane="free" departSpeed="max"/>
  <trip id="4029" depart="3.40" from="861090333" to="530490479#0" type="DEFAULT_VEHTYPE" fromTaz="T1_880_1" toTaz="T1_280_1" departLane="free" departSpeed="max"/>
  <trip id="3281" depart="3.42" from="861090333" to="966059358" type="DEFAULT_VEHTYPE" fromTaz="T1_880_1" toTaz="T1_17_1" departLane="free" departSpeed="max"/>
  <trip id="22" depart="3.42" from="93631344" to="850757718" type="DEFAULT_VEHTYPE" fromTaz="T1_680_1" toTaz="T1_17_1" departLane="free" departSpeed="max"/>
  <trip id="23" depart="3.57" from="93631344" to="850757718" type="DEFAULT_VEHTYPE" fromTaz="T1_680_1" toTaz="T1_17_1" departLane="free" departSpeed="max"/>
  <trip id="1989" depart="3.58" from="93631240" to="343498596" type="DEFAULT_VEHTYPE" fromTaz="T1_680_1" toTaz="T1_280_1" departLane="free" departSpeed="max"/>
  <trip id="4030" depart="3.70" from="861090333" to="530490479#0" type="DEFAULT_VEHTYPE" fromTaz="T1_880_1" toTaz="T1_280_1" departLane="free" departSpeed="max"/>
  <trip id="24" depart="3.72" from="93631344" to="850757718" type="DEFAULT_VEHTYPE" fromTaz="T1_680_1" toTaz="T1_17_1" departLane="free" departSpeed="max"/>
  <trip id="1990" depart="3.81" from="93631240" to="343498596" type="DEFAULT_VEHTYPE" fromTaz="T1_680_1" toTaz="T1_280_1" departLane="free" departSpeed="max"/>
  <trip id="3282" depart="3.83" from="861090333" to="966059358" type="DEFAULT_VEHTYPE" fromTaz="T1_880_1" toTaz="T1_17_1" departLane="free" departSpeed="max"/>
  <trip id="25" depart="3.88" from="93631344" to="850757718" type="DEFAULT_VEHTYPE" fromTaz="T1_680_1" toTaz="T1_17_1" departLane="free" departSpeed="max"/>
  <trip id="4031" depart="3.99" from="861090333" to="530490479#0" type="DEFAULT_VEHTYPE" fromTaz="T1_880_1" toTaz="T1_280_1" departLane="free" departSpeed="max"/>
  <trip id="26" depart="4.03" from="93631344" to="850757718" type="DEFAULT_VEHTYPE" fromTaz="T1_680_1" toTaz="T1_17_1" departLane="free" departSpeed="max"/>
  <trip id="1991" depart="4.04" from="93631240" to="343498596" type="DEFAULT_VEHTYPE" fromTaz="T1_680_1" toTaz="T1_280_1" departLane="free" departSpeed="max"/>
  <trip id="27" depart="4.18" from="93631344" to="850757718" type="DEFAULT_VEHTYPE" fromTaz="T1_680_1" toTaz="T1_17_1" departLane="free" departSpeed="max"/>
  <trip id="3283" depart="4.23" from="861090333" to="966059358" type="DEFAULT_VEHTYPE" fromTaz="T1_880_1" toTaz="T1_17_1" departLane="free" departSpeed="max"/>
  <trip id="1992" depart="4.27" from="93631240" to="343498596" type="DEFAULT_VEHTYPE" fromTaz="T1_680_1" toTaz="T1_280_1" departLane="free" departSpeed="max"/>
  <trip id="4032" depart="4.29" from="861090333" to="530490479#0" type="DEFAULT_VEHTYPE" fromTaz="T1_880_1" toTaz="T1_280_1" departLane="free" departSpeed="max"/>
  <trip id="28" depart="4.33" from="93631344" to="850757718" type="DEFAULT_VEHTYPE" fromTaz="T1_680_1" toTaz="T1_17_1" departLane="free" departSpeed="max"/>
  <trip id="29" depart="4.48" from="93631344" to="850757718" type="DEFAULT_VEHTYPE" fromTaz="T1_680_1" toTaz="T1_17_1" departLane="free" departSpeed="max"/>
  <trip id="1993" depart="4.50" from="93631240" to="343498596" type="DEFAULT_VEHTYPE" fromTaz="T1_680_1" toTaz="T1_280_1" departLane="free" departSpeed="max"/>
  <trip id="4033" depart="4.59" from="861090333" to="530490479#0" type="DEFAULT_VEHTYPE" fromTaz="T1_880_1" toTaz="T1_280_1" departLane="free" departSpeed="max"/>
  <trip id="3284" depart="4.63" from="861090333" to="966059358" type="DEFAULT_VEHTYPE" fromTaz="T1_880_1" toTaz="T1_17_1" departLane="free" departSpeed="max"/>
  <trip id="30" depart="4.64" from="93631344" to="850757718" type="DEFAULT_VEHTYPE" fromTaz="T1_680_1" toTaz="T1_17_1" departLane="free" departSpeed="max"/>
  <trip id="1994" depart="4.73" from="93631240" to="343498596" type="DEFAULT_VEHTYPE" fromTaz="T1_680_1" toTaz="T1_280_1" departLane="free" departSpeed="max"/>
  <trip id="31" depart="4.79" from="93631344" to="850757718" type="DEFAULT_VEHTYPE" fromTaz="T1_680_1" toTaz="T1_17_1" departLane="free" departSpeed="max"/>
  <trip id="4034" depart="4.88" from="861090333" to="530490479#0" type="DEFAULT_VEHTYPE" fromTaz="T1_880_1" toTaz="T1_280_1" departLane="free" departSpeed="max"/>
  <trip id="32" depart="4.94" from="93631344" to="850757718" type="DEFAULT_VEHTYPE" fromTaz="T1_680_1" toTaz="T1_17_1" departLane="free" departSpeed="max"/>
  <trip id="1995" depart="4.97" from="93631240" to="343498596" type="DEFAULT_VEHTYPE" fromTaz="T1_680_1" toTaz="T1_280_1" departLane="free" departSpeed="max"/>
  <trip id="3285" depart="5.03" from="861090333" to="966059358" type="DEFAULT_VEHTYPE" fromTaz="T1_880_1" toTaz="T1_17_1" departLane="free" departSpeed="max"/>
  <trip id="33" depart="5.09" from="93631344" to="850757718" type="DEFAULT_VEHTYPE" fromTaz="T1_680_1" toTaz="T1_17_1" departLane="free" departSpeed="max"/>
  <trip id="4035" depart="5.18" from="861090333" to="530490479#0" type="DEFAULT_VEHTYPE" fromTaz="T1_880_1" toTaz="T1_280_1" departLane="free" departSpeed="max"/>
  <trip id="1996" depart="5.20" from="93631240" to="343498596" type="DEFAULT_VEHTYPE" fromTaz="T1_680_1" toTaz="T1_280_1" departLane="free" departSpeed="max"/>
  <trip id="34" depart="5.24" from="93631344" to="850757718" type="DEFAULT_VEHTYPE" fromTaz="T1_680_1" toTaz="T1_17_1" departLane="free" departSpeed="max"/>
  <trip id="35" depart="5.40" from="93631344" to="850757718" type="DEFAULT_VEHTYPE" fromTaz="T1_680_1" toTaz="T1_17_1" departLane="free" departSpeed="max"/>
  <trip id="1997" depart="5.43" from="93631240" to="343498596" type="DEFAULT_VEHTYPE" fromTaz="T1_680_1" toTaz="T1_280_1" departLane="free" departSpeed="max"/>
  <trip id="3286" depart="5.44" from="861090333" to="966059358" type="DEFAULT_VEHTYPE" fromTaz="T1_880_1" toTaz="T1_17_1" departLane="free" departSpeed="max"/>
  <trip id="4036" depart="5.47" from="861090333" to="530490479#0" type="DEFAULT_VEHTYPE" fromTaz="T1_880_1" toTaz="T1_280_1" departLane="free" departSpeed="max"/>
  <trip id="36" depart="5.55" from="93631344" to="850757718" type="DEFAULT_VEHTYPE" fromTaz="T1_680_1" toTaz="T1_17_1" departLane="free" departSpeed="max"/>
  <trip id="1998" depart="5.66" from="93631240" to="343498596" type="DEFAULT_VEHTYPE" fromTaz="T1_680_1" toTaz="T1_280_1" departLane="free" departSpeed="max"/>
  <trip id="37" depart="5.70" from="93631344" to="850757718" type="DEFAULT_VEHTYPE" fromTaz="T1_680_1" toTaz="T1_17_1" departLane="free" departSpeed="max"/>
  <trip id="4037" depart="5.77" from="861090333" to="530490479#0" type="DEFAULT_VEHTYPE" fromTaz="T1_880_1" toTaz="T1_280_1" departLane="free" departSpeed="max"/>
  <trip id="3287" depart="5.84" from="861090333" to="966059358" type="DEFAULT_VEHTYPE" fromTaz="T1_880_1" toTaz="T1_17_1" departLane="free" departSpeed="max"/>
  <trip id="38" depart="5.85" from="93631344" to="850757718" type="DEFAULT_VEHTYPE" fromTaz="T1_680_1" toTaz="T1_17_1" departLane="free" departSpeed="max"/>
  <trip id="1999" depart="5.89" from="93631240" to="343498596" type="DEFAULT_VEHTYPE" fromTaz="T1_680_1" toTaz="T1_280_1" departLane="free" departSpeed="max"/>
  <trip id="39" depart="6.00" from="93631344" to="850757718" type="DEFAULT_VEHTYPE" fromTaz="T1_680_1" toTaz="T1_17_1" departLane="free" departSpeed="max"/>
  <trip id="4038" depart="6.07" from="861090333" to="530490479#0" type="DEFAULT_VEHTYPE" fromTaz="T1_880_1" toTaz="T1_280_1" departLane="free" departSpeed="max"/>
  <trip id="2000" depart="6.12" from="93631240" to="343498596" type="DEFAULT_VEHTYPE" fromTaz="T1_680_1" toTaz="T1_280_1" departLane="free" departSpeed="max"/>
  <trip id="40" depart="6.16" from="93631344" to="850757718" type="DEFAULT_VEHTYPE" fromTaz="T1_680_1" toTaz="T1_17_1" departLane="free" departSpeed="max"/>
  <trip id="3288" depart="6.24" from="861090333" to="966059358" type="DEFAULT_VEHTYPE" fromTaz="T1_880_1" toTaz="T1_17_1" departLane="free" departSpeed="max"/>
  <trip id="41" depart="6.31" from="93631344" to="850757718" type="DEFAULT_VEHTYPE" fromTaz="T1_680_1" toTaz="T1_17_1" departLane="free" departSpeed="max"/>
  <trip id="2001" depart="6.35" from="93631240" to="343498596" type="DEFAULT_VEHTYPE" fromTaz="T1_680_1" toTaz="T1_280_1" departLane="free" departSpeed="max"/>
  <trip id="4039" depart="6.36" from="861090333" to="530490479#0" type="DEFAULT_VEHTYPE" fromTaz="T1_880_1" toTaz="T1_280_1" departLane="free" departSpeed="max"/>
  <trip id="42" depart="6.46" from="93631344" to="850757718" type="DEFAULT_VEHTYPE" fromTaz="T1_680_1" toTaz="T1_17_1" departLane="free" departSpeed="max"/>
  <trip id="2002" depart="6.58" from="93631240" to="343498596" type="DEFAULT_VEHTYPE" fromTaz="T1_680_1" toTaz="T1_280_1" departLane="free" departSpeed="max"/>
  <trip id="43" depart="6.61" from="93631344" to="850757718" type="DEFAULT_VEHTYPE" fromTaz="T1_680_1" toTaz="T1_17_1" departLane="free" departSpeed="max"/>
  <trip id="3289" depart="6.64" from="861090333" to="966059358" type="DEFAULT_VEHTYPE" fromTaz="T1_880_1" toTaz="T1_17_1" departLane="free" departSpeed="max"/>
  <trip id="4040" depart="6.66" from="861090333" to="530490479#0" type="DEFAULT_VEHTYPE" fromTaz="T1_880_1" toTaz="T1_280_1" departLane="free" departSpeed="max"/>
  <trip id="44" depart="6.76" from="93631344" to="850757718" type="DEFAULT_VEHTYPE" fromTaz="T1_680_1" toTaz="T1_17_1" departLane="free" departSpeed="max"/>
  <trip id="2003" depart="6.81" from="93631240" to="343498596" type="DEFAULT_VEHTYPE" fromTaz="T1_680_1" toTaz="T1_280_1" departLane="free" departSpeed="max"/>
  <trip id="45" depart="6.91" from="93631344" to="850757718" type="DEFAULT_VEHTYPE" fromTaz="T1_680_1" toTaz="T1_17_1" departLane="free" departSpeed="max"/>
  <trip id="4041" depart="6.95" from="861090333" to="530490479#0" type="DEFAULT_VEHTYPE" fromTaz="T1_880_1" toTaz="T1_280_1" departLane="free" departSpeed="max"/>
  <trip id="2004" depart="7.04" from="93631240" to="343498596" type="DEFAULT_VEHTYPE" fromTaz="T1_680_1" toTaz="T1_280_1" departLane="free" departSpeed="max"/>
  <trip id="3290" depart="7.05" from="861090333" to="966059358" type="DEFAULT_VEHTYPE" fromTaz="T1_880_1" toTaz="T1_17_1" departLane="free" departSpeed="max"/>
  <trip id="46" depart="7.07" from="93631344" to="850757718" type="DEFAULT_VEHTYPE" fromTaz="T1_680_1" toTaz="T1_17_1" departLane="free" departSpeed="max"/>
  <trip id="47" depart="7.22" from="93631344" to="850757718" type="DEFAULT_VEHTYPE" fromTaz="T1_680_1" toTaz="T1_17_1" departLane="free" departSpeed="max"/>
  <trip id="4042" depart="7.25" from="861090333" to="530490479#0" type="DEFAULT_VEHTYPE" fromTaz="T1_880_1" toTaz="T1_280_1" departLane="free" departSpeed="max"/>
  <trip id="2005" depart="7.27" from="93631240" to="343498596" type="DEFAULT_VEHTYPE" fromTaz="T1_680_1" toTaz="T1_280_1" departLane="free" departSpeed="max"/>
  <trip id="48" depart="7.37" from="93631344" to="850757718" type="DEFAULT_VEHTYPE" fromTaz="T1_680_1" toTaz="T1_17_1" departLane="free" departSpeed="max"/>
  <trip id="3291" depart="7.45" from="861090333" to="966059358" type="DEFAULT_VEHTYPE" fromTaz="T1_880_1" toTaz="T1_17_1" departLane="free" departSpeed="max"/>
  <trip id="2006" depart="7.51" from="93631240" to="343498596" type="DEFAULT_VEHTYPE" fromTaz="T1_680_1" toTaz="T1_280_1" departLane="free" departSpeed="max"/>
  <trip id="49" depart="7.52" from="93631344" to="850757718" type="DEFAULT_VEHTYPE" fromTaz="T1_680_1" toTaz="T1_17_1" departLane="free" departSpeed="max"/>
  <trip id="4043" depart="7.54" from="861090333" to="530490479#0" type="DEFAULT_VEHTYPE" fromTaz="T1_880_1" toTaz="T1_280_1" departLane="free" departSpeed="max"/>
  <trip id="50" depart="7.67" from="93631344" to="850757718" type="DEFAULT_VEHTYPE" fromTaz="T1_680_1" toTaz="T1_17_1" departLane="free" departSpeed="max"/>
  <trip id="2007" depart="7.74" from="93631240" to="343498596" type="DEFAULT_VEHTYPE" fromTaz="T1_680_1" toTaz="T1_280_1" departLane="free" departSpeed="max"/>
  <trip id="51" depart="7.83" from="93631344" to="850757718" type="DEFAULT_VEHTYPE" fromTaz="T1_680_1" toTaz="T1_17_1" departLane="free" departSpeed="max"/>
  <trip id="4044" depart="7.84" from="861090333" to="530490479#0" type="DEFAULT_VEHTYPE" fromTaz="T1_880_1" toTaz="T1_280_1" departLane="free" departSpeed="max"/>
  <trip id="3292" depart="7.85" from="861090333" to="966059358" type="DEFAULT_VEHTYPE" fromTaz="T1_880_1" toTaz="T1_17_1" departLane="free" departSpeed="max"/>
  <trip id="2008" depart="7.97" from="93631240" to="343498596" type="DEFAULT_VEHTYPE" fromTaz="T1_680_1" toTaz="T1_280_1" departLane="free" departSpeed="max"/>
  <trip id="52" depart="7.98" from="93631344" to="850757718" type="DEFAULT_VEHTYPE" fromTaz="T1_680_1" toTaz="T1_17_1" departLane="free" departSpeed="max"/>
  <trip id="53" depart="8.13" from="93631344" to="850757718" type="DEFAULT_VEHTYPE" fromTaz="T1_680_1" toTaz="T1_17_1" departLane="free" departSpeed="max"/>
  <trip id="4045" depart="8.14" from="861090333" to="530490479#0" type="DEFAULT_VEHTYPE" fromTaz="T1_880_1" toTaz="T1_280_1" departLane="free" departSpeed="max"/>
  <trip id="2009" depart="8.20" from="93631240" to="343498596" type="DEFAULT_VEHTYPE" fromTaz="T1_680_1" toTaz="T1_280_1" departLane="free" departSpeed="max"/>
  <trip id="3293" depart="8.26" from="861090333" to="966059358" type="DEFAULT_VEHTYPE" fromTaz="T1_880_1" toTaz="T1_17_1" departLane="free" departSpeed="max"/>
  <trip id="54" depart="8.28" from="93631344" to="850757718" type="DEFAULT_VEHTYPE" fromTaz="T1_680_1" toTaz="T1_17_1" departLane="free" departSpeed="max"/>
  <trip id="4046" depart="8.43" from="861090333" to="530490479#0" type="DEFAULT_VEHTYPE" fromTaz="T1_880_1" toTaz="T1_280_1" departLane="free" departSpeed="max"/>
  <trip id="55" depart="8.43" from="93631344" to="850757718" type="DEFAULT_VEHTYPE" fromTaz="T1_680_1" toTaz="T1_17_1" departLane="free" departSpeed="max"/>
  <trip id="2010" depart="8.43" from="93631240" to="343498596" type="DEFAULT_VEHTYPE" fromTaz="T1_680_1" toTaz="T1_280_1" departLane="free" departSpeed="max"/>
  <trip id="56" depart="8.59" from="93631344" to="850757718" type="DEFAULT_VEHTYPE" fromTaz="T1_680_1" toTaz="T1_17_1" departLane="free" departSpeed="max"/>
  <trip id="2011" depart="8.66" from="93631240" to="343498596" type="DEFAULT_VEHTYPE" fromTaz="T1_680_1" toTaz="T1_280_1" departLane="free" departSpeed="max"/>
  <trip id="3294" depart="8.66" from="861090333" to="966059358" type="DEFAULT_VEHTYPE" fromTaz="T1_880_1" toTaz="T1_17_1" departLane="free" departSpeed="max"/>
  <trip id="4047" depart="8.73" from="861090333" to="530490479#0" type="DEFAULT_VEHTYPE" fromTaz="T1_880_1" toTaz="T1_280_1" departLane="free" departSpeed="max"/>
  <trip id="57" depart="8.74" from="93631344" to="850757718" type="DEFAULT_VEHTYPE" fromTaz="T1_680_1" toTaz="T1_17_1" departLane="free" departSpeed="max"/>
  <trip id="2012" depart="8.89" from="93631240" to="343498596" type="DEFAULT_VEHTYPE" fromTaz="T1_680_1" toTaz="T1_280_1" departLane="free" departSpeed="max"/>
  <trip id="58" depart="8.89" from="93631344" to="850757718" type="DEFAULT_VEHTYPE" fromTaz="T1_680_1" toTaz="T1_17_1" departLane="free" departSpeed="max"/>
  <trip id="4048" depart="9.02" from="861090333" to="530490479#0" type="DEFAULT_VEHTYPE" fromTaz="T1_880_1" toTaz="T1_280_1" departLane="free" departSpeed="max"/>
  <trip id="59" depart="9.04" from="93631344" to="850757718" type="DEFAULT_VEHTYPE" fromTaz="T1_680_1" toTaz="T1_17_1" departLane="free" departSpeed="max"/>
  <trip id="3295" depart="9.06" from="861090333" to="966059358" type="DEFAULT_VEHTYPE" fromTaz="T1_880_1" toTaz="T1_17_1" departLane="free" departSpeed="max"/>
  <trip id="2013" depart="9.12" from="93631240" to="343498596" type="DEFAULT_VEHTYPE" fromTaz="T1_680_1" toTaz="T1_280_1" departLane="free" departSpeed="max"/>
  <trip id="60" depart="9.19" from="93631344" to="850757718" type="DEFAULT_VEHTYPE" fromTaz="T1_680_1" toTaz="T1_17_1" departLane="free" departSpeed="max"/>
  <trip id="4049" depart="9.32" from="861090333" to="530490479#0" type="DEFAULT_VEHTYPE" fromTaz="T1_880_1" toTaz="T1_280_1" departLane="free" departSpeed="max"/>
  <trip id="2014" depart="9.35" from="93631240" to="343498596" type="DEFAULT_VEHTYPE" fromTaz="T1_680_1" toTaz="T1_280_1" departLane="free" departSpeed="max"/>
  <trip id="61" depart="9.35" from="93631344" to="850757718" type="DEFAULT_VEHTYPE" fromTaz="T1_680_1" toTaz="T1_17_1" departLane="free" departSpeed="max"/>
  <trip id="3296" depart="9.46" from="861090333" to="966059358" type="DEFAULT_VEHTYPE" fromTaz="T1_880_1" toTaz="T1_17_1" departLane="free" departSpeed="max"/>
  <trip id="62" depart="9.50" from="93631344" to="850757718" type="DEFAULT_VEHTYPE" fromTaz="T1_680_1" toTaz="T1_17_1" departLane="free" departSpeed="max"/>
  <trip id="2015" depart="9.58" from="93631240" to="343498596" type="DEFAULT_VEHTYPE" fromTaz="T1_680_1" toTaz="T1_280_1" departLane="free" departSpeed="max"/>
  <trip id="4050" depart="9.62" from="861090333" to="530490479#0" type="DEFAULT_VEHTYPE" fromTaz="T1_880_1" toTaz="T1_280_1" departLane="free" departSpeed="max"/>
  <trip id="63" depart="9.65" from="93631344" to="850757718" type="DEFAULT_VEHTYPE" fromTaz="T1_680_1" toTaz="T1_17_1" departLane="free" departSpeed="max"/>
  <trip id="64" depart="9.80" from="93631344" to="850757718" type="DEFAULT_VEHTYPE" fromTaz="T1_680_1" toTaz="T1_17_1" departLane="free" departSpeed="max"/>
  <trip id="2016" depart="9.82" from="93631240" to="343498596" type="DEFAULT_VEHTYPE" fromTaz="T1_680_1" toTaz="T1_280_1" departLane="free" departSpeed="max"/>
  <trip id="3297" depart="9.87" from="861090333" to="966059358" type="DEFAULT_VEHTYPE" fromTaz="T1_880_1" toTaz="T1_17_1" departLane="free" departSpeed="max"/>
  <trip id="4051" depart="9.91" from="861090333" to="530490479#0" type="DEFAULT_VEHTYPE" fromTaz="T1_880_1" toTaz="T1_280_1" departLane="free" departSpeed="max"/>
  <trip id="65" depart="9.95" from="93631344" to="850757718" type="DEFAULT_VEHTYPE" fromTaz="T1_680_1" toTaz="T1_17_1" departLane="free" departSpeed="max"/>
  <trip id="2017" depart="10.05" from="93631240" to="343498596" type="DEFAULT_VEHTYPE" fromTaz="T1_680_1" toTaz="T1_280_1" departLane="free" departSpeed="max"/>
  <trip id="66" depart="10.11" from="93631344" to="850757718" type="DEFAULT_VEHTYPE" fromTaz="T1_680_1" toTaz="T1_17_1" departLane="free" departSpeed="max"/>
  <trip id="4052" depart="10.21" from="861090333" to="530490479#0" type="DEFAULT_VEHTYPE" fromTaz="T1_880_1" toTaz="T1_280_1" departLane="free" departSpeed="max"/>
  <trip id="67" depart="10.26" from="93631344" to="850757718" type="DEFAULT_VEHTYPE" fromTaz="T1_680_1" toTaz="T1_17_1" departLane="free" departSpeed="max"/>
  <trip id="3298" depart="10.27" from="861090333" to="966059358" type="DEFAULT_VEHTYPE" fromTaz="T1_880_1" toTaz="T1_17_1" departLane="free" departSpeed="max"/>
  <trip id="2018" depart="10.28" from="93631240" to="343498596" type="DEFAULT_VEHTYPE" fromTaz="T1_680_1" toTaz="T1_280_1" departLane="free" departSpeed="max"/>
  <trip id="68" depart="10.41" from="93631344" to="850757718" type="DEFAULT_VEHTYPE" fromTaz="T1_680_1" toTaz="T1_17_1" departLane="free" departSpeed="max"/>
  <trip id="4053" depart="10.50" from="861090333" to="530490479#0" type="DEFAULT_VEHTYPE" fromTaz="T1_880_1" toTaz="T1_280_1" departLane="free" departSpeed="max"/>
  <trip id="2019" depart="10.51" from="93631240" to="343498596" type="DEFAULT_VEHTYPE" fromTaz="T1_680_1" toTaz="T1_280_1" departLane="free" departSpeed="max"/>
  <trip id="69" depart="10.56" from="93631344" to="850757718" type="DEFAULT_VEHTYPE" fromTaz="T1_680_1" toTaz="T1_17_1" departLane="free" departSpeed="max"/>
  <trip id="3299" depart="10.67" from="861090333" to="966059358" type="DEFAULT_VEHTYPE" fromTaz="T1_880_1" toTaz="T1_17_1" departLane="free" departSpeed="max"/>
  <trip id="70" depart="10.71" from="93631344" to="850757718" type="DEFAULT_VEHTYPE" fromTaz="T1_680_1" toTaz="T1_17_1" departLane="free" departSpeed="max"/>
  <trip id="2020" depart="10.74" from="93631240" to="343498596" type="DEFAULT_VEHTYPE" fromTaz="T1_680_1" toTaz="T1_280_1" departLane="free" departSpeed="max"/>
  <trip id="4054" depart="10.80" from="861090333" to="530490479#0" type="DEFAULT_VEHTYPE" fromTaz="T1_880_1" toTaz="T1_280_1" departLane="free" departSpeed="max"/>
  <trip id="71" depart="10.87" from="93631344" to="850757718" type="DEFAULT_VEHTYPE" fromTaz="T1_680_1" toTaz="T1_17_1" departLane="free" departSpeed="max"/>
  <trip id="2021" depart="10.97" from="93631240" to="343498596" type="DEFAULT_VEHTYPE" fromTaz="T1_680_1" toTaz="T1_280_1" departLane="free" departSpeed="max"/>
  <trip id="72" depart="11.02" from="93631344" to="850757718" type="DEFAULT_VEHTYPE" fromTaz="T1_680_1" toTaz="T1_17_1" departLane="free" departSpeed="max"/>
  <trip id="3300" depart="11.07" from="861090333" to="966059358" type="DEFAULT_VEHTYPE" fromTaz="T1_880_1" toTaz="T1_17_1" departLane="free" departSpeed="max"/>
  <trip id="4055" depart="11.09" from="861090333" to="530490479#0" type="DEFAULT_VEHTYPE" fromTaz="T1_880_1" toTaz="T1_280_1" departLane="free" departSpeed="max"/>