<?xml version='1.0' encoding='utf-8'?>
<routes>
  <trip id="1918" depart="0.09" from="861090333" to="530490479#0" type="DEFAULT_VEHTYPE" fromTaz="T1_880_1" toTaz="T1_280_1" departLane="free" departSpeed="max"/>
  <trip id="526" depart="0.11" from="861090333" to="966059358" type="DEFAULT_VEHTYPE" fromTaz="T1_880_1" toTaz="T1_17_1" departLane="free" departSpeed="max"/>
  <trip id="1919" depart="0.26" from="861090333" to="530490479#0" type="DEFAULT_VEHTYPE" fromTaz="T1_880_1" toTaz="T1_280_1" departLane="free" departSpeed="max"/>
  <trip id="527" depart="0.32" from="861090333" to="966059358" type="DEFAULT_VEHTYPE" fromTaz="T1_880_1" toTaz="T1_17_1" departLane="free" departSpeed="max"/>
  <trip id="1920" depart="0.43" from="861090333" to="530490479#0" type="DEFAULT_VEHTYPE" fromTaz="T1_880_1" toTaz="T1_280_1" departLane="free" departSpeed="max"/>
  <trip id="528" depart="0.54" from="861090333" to="966059358" type="DEFAULT_VEHTYPE" fromTaz="T1_880_1" toTaz="T1_17_1" departLane="free" departSpeed="max"/>
  <trip id="0" depart="0.57" from="93631344" to="850757718" type="DEFAULT_VEHTYPE" fromTaz="T1_680_1" toTaz="T1_17_1" departLane="free" departSpeed="max"/>
  <trip id="264" depart="0.57" from="93631240" to="343498596" type="DEFAULT_VEHTYPE" fromTaz="T1_680_1" toTaz="T1_280_1" departLane="free" departSpeed="max"/>
  <trip id="1921" depart="0.61" from="861090333" to="530490479#0" type="DEFAULT_VEHTYPE" fromTaz="T1_880_1" toTaz="T1_280_1" departLane="free" departSpeed="max"/>
  <trip id="529" depart="0.75" from="861090333" to="966059358" type="DEFAULT_VEHTYPE" fromTaz="T1_880_1" toTaz="T1_17_1" departLane="free" departSpeed="max"/>
  <trip id="1922" depart="0.78" from="861090333" to="530490479#0" type="DEFAULT_VEHTYPE" fromTaz="T1_880_1" toTaz="T1_280_1" departLane="free" departSpeed="max"/>
  <trip id="1923" depart="0.95" from="861090333" to="530490479#0" type="DEFAULT_VEHTYPE" fromTaz="T1_880_1" toTaz="T1_280_1" departLane="free" departSpeed="max"/>
  <trip id="530" depart="0.97" from="861090333" to="966059358" type="DEFAULT_VEHTYPE" fromTaz="T1_880_1" toTaz="T1_17_1" departLane="free" departSpeed="max"/>
  <trip id="1924" depart="1.13" from="861090333" to="530490479#0" type="DEFAULT_VEHTYPE" fromTaz="T1_880_1" toTaz="T1_280_1" departLane="free" departSpeed="max"/>
  <trip id="531" depart="1.19" from="861090333" to="966059358" type="DEFAULT_VEHTYPE" fromTaz="T1_880_1" toTaz="T1_17_1" departLane="free" departSpeed="max"/>
  <trip id="1925" depart="1.30" from="861090333" to="530490479#0" type="DEFAULT_VEHTYPE" fromTaz="T1_880_1" toTaz="T1_280_1" departLane="free" departSpeed="max"/>
  <trip id="532" depart="1.40" from="861090333" to="966059358" type="DEFAULT_VEHTYPE" fromTaz="T1_880_1" toTaz="T1_17_1" departLane="free" departSpeed="max"/>
  <trip id="1926" depart="1.47" from="861090333" to="530490479#0" type="DEFAULT_VEHTYPE" fromTaz="T1_880_1" toTaz="T1_280_1" departLane="free" departSpeed="max"/>
  <trip id="533" depart="1.62" from="861090333" to="966059358" type="DEFAULT_VEHTYPE" fromTaz="T1_880_1" toTaz="T1_17_1" departLane="free" departSpeed="max"/>
  <trip id="1927" depart="1.65" from="861090333" to="530490479#0" type="DEFAULT_VEHTYPE" fromTaz="T1_880_1" toTaz="T1_280_1" departLane="free" departSpeed="max"/>
  <trip id="1" depart="1.70" from="93631344" to="850757718" type="DEFAULT_VEHTYPE" fromTaz="T1_680_1" toTaz="T1_17_1" departLane="free" departSpeed="max"/>
  <trip id="265" depart="1.72" from="93631240" to="343498596" type="DEFAULT_VEHTYPE" fromTaz="T1_680_1" toTaz="T1_280_1" departLane="free" departSpeed="max"/>
  <trip id="1928" depart="1.82" from="861090333" to="530490479#0" type="DEFAULT_VEHTYPE" fromTaz="T1_880_1" toTaz="T1_280_1" departLane="free" departSpeed="max"/>
  <trip id="534" depart="1.83" from="861090333" to="966059358" type="DEFAULT_VEHTYPE" fromTaz="T1_880_1" toTaz="T1_17_1" departLane="free" departSpeed="max"/>
  <trip id="1929" depart="1.99" from="861090333" to="530490479#0" type="DEFAULT_VEHTYPE" fromTaz="T1_880_1" toTaz="T1_280_1" departLane="free" departSpeed="max"/>
  <trip id="535" depart="2.05" from="861090333" to="966059358" type="DEFAULT_VEHTYPE" fromTaz="T1_880_1" toTaz="T1_17_1" departLane="free" departSpeed="max"/>
  <trip id="1930" depart="2.17" from="861090333" to="530490479#0" type="DEFAULT_VEHTYPE" fromTaz="T1_880_1" toTaz="T1_280_1" departLane="free" departSpeed="max"/>
  <trip id="536" depart="2.26" from="861090333" to="966059358" type="DEFAULT_VEHTYPE" fromTaz="T1_880_1" toTaz="T1_17_1" departLane="free" departSpeed="max"/>
  <trip id="1931" depart="2.34" from="861090333" to="530490479#0" type="DEFAULT_VEHTYPE" fromTaz="T1_880_1" toTaz="T1_280_1" departLane="free" departSpeed="max"/>
  <trip id="537" depart="2.48" from="861090333" to="966059358" type="DEFAULT_VEHTYPE" fromTaz="T1_880_1" toTaz="T1_17_1" departLane="free" departSpeed="max"/>
  <trip id="1932" depart="2.51" from="861090333" to="530490479#0" type="DEFAULT_VEHTYPE" fromTaz="T1_880_1" toTaz="T1_280_1" departLane="free" departSpeed="max"/>
  <trip id="538" depart="2.69" from="861090333" to="966059358" type="DEFAULT_VEHTYPE" fromTaz="T1_880_1" toTaz="T1_17_1" departLane="free" departSpeed="max"/>
  <trip id="1933" depart="2.69" from="861090333" to="530490479#0" type="DEFAULT_VEHTYPE" fromTaz="T1_880_1" toTaz="T1_280_1" departLane="free" departSpeed="max"/>
  <trip id="2" depart="2.84" from="93631344" to="850757718" type="DEFAULT_VEHTYPE" fromTaz="T1_680_1" toTaz="T1_17_1" departLane="free" departSpeed="max"/>
  <trip id="266" depart="2.86" from="93631240" to="343498596" type="DEFAULT_VEHTYPE" fromTaz="T1_680_1" toTaz="T1_280_1" departLane="free" departSpeed="max"/>
  <trip id="1934" depart="2.86" from="861090333" to="530490479#0" type="DEFAULT_VEHTYPE" fromTaz="T1_880_1" toTaz="T1_280_1" departLane="free" departSpeed="max"/>
  <trip id="539" depart="2.91" from="861090333" to="966059358" type="DEFAULT_VEHTYPE" fromTaz="T1_880_1" toTaz="T1_17_1" departLane="free" departSpeed="max"/>
  <trip id="1935" depart="3.03" from="861090333" to="530490479#0" type="DEFAULT_VEHTYPE" fromTaz="T1_880_1" toTaz="T1_280_1" departLane="free" departSpeed="max"/>
  <trip id="540" depart="3.13" from="861090333" to="966059358" type="DEFAULT_VEHTYPE" fromTaz="T1_880_1" toTaz="T1_17_1" departLane="free" departSpeed="max"/>
  <trip id="1936" depart="3.21" from="861090333" to="530490479#0" type="DEFAULT_VEHTYPE" fromTaz="T1_880_1" toTaz="T1_280_1" departLane="free" departSpeed="max"/>
  <trip id="541" depart="3.34" from="861090333" to="966059358" type="DEFAULT_VEHTYPE" fromTaz="T1_880_1" toTaz="T1_17_1" departLane="free" departSpeed="max"/>
  <trip id="1937" depart="3.38" from="861090333" to="530490479#0" type="DEFAULT_VEHTYPE" fromTaz="T1_880_1" toTaz="T1_280_1" departLane="free" departSpeed="max"/>
  <trip id="1938" depart="3.55" from="861090333" to="530490479#0" type="DEFAULT_VEHTYPE" fromTaz="T1_880_1" toTaz="T1_280_1" departLane="free" departSpeed="max"/>
  <trip id="542" depart="3.56" from="861090333" to="966059358" type="DEFAULT_VEHTYPE" fromTaz="T1_880_1" toTaz="T1_17_1" departLane="free" departSpeed="max"/>
  <trip id="1939" depart="3.73" from="861090333" to="530490479#0" type="DEFAULT_VEHTYPE" fromTaz="T1_880_1" toTaz="T1_280_1" departLane="free" departSpeed="max"/>
  <trip id="543" depart="3.77" from="861090333" to="966059358" type="DEFAULT_VEHTYPE" fromTaz="T1_880_1" toTaz="T1_17_1" departLane="free" departSpeed="max"/>
  <trip id="1940" depart="3.90" from="861090333" to="530490479#0" type="DEFAULT_VEHTYPE" fromTaz="T1_880_1" toTaz="T1_280_1" departLane="free" departSpeed="max"/>
  <trip id="3" depart="3.98" from="93631344" to="850757718" type="DEFAULT_VEHTYPE" fromTaz="T1_680_1" toTaz="T1_17_1" departLane="free" departSpeed="max"/>
  <trip id="544" depart="3.99" from="861090333" to="966059358" type="DEFAULT_VEHTYPE" fromTaz="T1_880_1" toTaz="T1_17_1" departLane="free" departSpeed="max"/>
  <trip id="267" depart="4.01" from="93631240" to="343498596" type="DEFAULT_VEHTYPE" fromTaz="T1_680_1" toTaz="T1_280_1" departLane="free" departSpeed="max"/>
  <trip id="1941" depart="4.08" from="861090333" to="530490479#0" type="DEFAULT_VEHTYPE" fromTaz="T1_880_1" toTaz="T1_280_1" departLane="free" departSpeed="max"/>
  <trip id="545" depart="4.20" from="861090333" to="966059358" type="DEFAULT_VEHTYPE" fromTaz="T1_880_1" toTaz="T1_17_1" departLane="free" departSpeed="max"/>
  <trip id="1942" depart="4.25" from="861090333" to="530490479#0" type="DEFAULT_VEHTYPE" fromTaz="T1_880_1" toTaz="T1_280_1" departLane="free" departSpeed="max"/>
  <trip id="546" depart="4.42" from="861090333" to="966059358" type="DEFAULT_VEHTYPE" fromTaz="T1_880_1" toTaz="T1_17_1" departLane="free" departSpeed="max"/>
  <trip id="1943" depart="4.42" from="861090333" to="530490479#0" type="DEFAULT_VEHTYPE" fromTaz="T1_880_1" toTaz="T1_280_1" departLane="free" departSpeed="max"/>
  <trip id="1944" depart="4.60" from="861090333" to="530490479#0" type="DEFAULT_VEHTYPE" fromTaz="T1_880_1" toTaz="T1_280_1" departLane="free" departSpeed="max"/>
  <trip id="547" depart="4.63" from="861090333" to="966059358" type="DEFAULT_VEHTYPE" fromTaz="T1_880_1" toTaz="T1_17_1" departLane="free" departSpeed="max"/>
  <trip id="1945" depart="4.77" from="861090333" to="530490479#0" type="DEFAULT_VEHTYPE" fromTaz="T1_880_1" toTaz="T1_280_1" departLane="free" departSpeed="max"/>
  <trip id="548" depart="4.85" from="861090333" to="966059358" type="DEFAULT_VEHTYPE" fromTaz="T1_880_1" toTaz="T1_17_1" departLane="free" departSpeed="max"/>
  <trip id="1946" depart="4.94" from="861090333" to="530490479#0" type="DEFAULT_VEHTYPE" fromTaz="T1_880_1" toTaz="T1_280_1" departLane="free" departSpeed="max"/>
  <trip id="549" depart="5.06" from="861090333" to="966059358" type="DEFAULT_VEHTYPE" fromTaz="T1_880_1" toTaz="T1_17_1" departLane="free" departSpeed="max"/>
  <trip id="4" depart="5.11" from="93631344" to="850757718" type="DEFAULT_VEHTYPE" fromTaz="T1_680_1" toTaz="T1_17_1" departLane="free" departSpeed="max"/>
  <trip id="1947" depart="5.12" from="861090333" to="530490479#0" type="DEFAULT_VEHTYPE" fromTaz="T1_880_1" toTaz="T1_280_1" departLane="free" departSpeed="max"/>
  <trip id="268" depart="5.15" from="93631240" to="343498596" type="DEFAULT_VEHTYPE" fromTaz="T1_680_1" toTaz="T1_280_1" departLane="free" departSpeed="max"/>
  <trip id="550" depart="5.28" from="861090333" to="966059358" type="DEFAULT_VEHTYPE" fromTaz="T1_880_1" toTaz="T1_17_1" departLane="free" departSpeed="max"/>
  <trip id="1948" depart="5.29" from="861090333" to="530490479#0" type="DEFAULT_VEHTYPE" fromTaz="T1_880_1" toTaz="T1_280_1" departLane="free" departSpeed="max"/>
  <trip id="1949" depart="5.46" from="861090333" to="530490479#0" type="DEFAULT_VEHTYPE" fromTaz="T1_880_1" toTaz="T1_280_1" departLane="free" departSpeed="max"/>
  <trip id="551" depart="5.50" from="861090333" to="966059358" type="DEFAULT_VEHTYPE" fromTaz="T1_880_1" toTaz="T1_17_1" departLane="free" departSpeed="max"/>
  <trip id="1950" depart="5.64" from="861090333" to="530490479#0" type="DEFAULT_VEHTYPE" fromTaz="T1_880_1" toTaz="T1_280_1" departLane="free" departSpeed="max"/>
  <trip id="552" depart="5.71" from="861090333" to="966059358" type="DEFAULT_VEHTYPE" fromTaz="T1_880_1" toTaz="T1_17_1" departLane="free" departSpeed="max"/>
  <trip id="1951" depart="5.81" from="861090333" to="530490479#0" type="DEFAULT_VEHTYPE" fromTaz="T1_880_1" toTaz="T1_280_1" departLane="free" departSpeed="max"/>
  <trip id="553" depart="5.93" from="861090333" to="966059358" type="DEFAULT_VEHTYPE" fromTaz="T1_880_1" toTaz="T1_17_1" departLane="free" departSpeed="max"/>
  <trip id="1952" depart="5.98" from="861090333" to="530490479#0" type="DEFAULT_VEHTYPE" fromTaz="T1_880_1" toTaz="T1_280_1" departLane="free" departSpeed="max"/>
  <trip id="554" depart="6.14" from="861090333" to="966059358" type="DEFAULT_VEHTYPE" fromTaz="T1_880_1" toTaz="T1_17_1" departLane="free" departSpeed="max"/>
  <trip id="1953" depart="6.16" from="861090333" to="530490479#0" type="DEFAULT_VEHTYPE" fromTaz="T1_880_1" toTaz="T1_280_1" departLane="free" departSpeed="max"/>
  <trip id="5" depart="6.25" from="93631344" to="850757718" type="DEFAULT_VEHTYPE" fromTaz="T1_680_1" toTaz="T1_17_1" departLane="free" departSpeed="max"/>
  <trip id="269" depart="6.30" from="93631240" to="343498596" type="DEFAULT_VEHTYPE" fromTaz="T1_680_1" toTaz="T1_280_1" departLane="free" departSpeed="max"/>
  <trip id="1954" depart="6.33" from="861090333" to="530490479#0" type="DEFAULT_VEHTYPE" fromTaz="T1_880_1" toTaz="T1_280_1" departLane="free" departSpeed="max"/>
  <trip id="555" depart="6.36" from="861090333" to="966059358" type="DEFAULT_VEHTYPE" fromTaz="T1_880_1" toTaz="T1_17_1" departLane="free" departSpeed="max"/>
  <trip id="1955" depart="6.50" from="861090333" to="530490479#0" type="DEFAULT_VEHTYPE" fromTaz="T1_880_1" toTaz="T1_280_1" departLane="free" departSpeed="max"/>
  <trip id="556" depart="6.57" from="861090333" to="966059358" type="DEFAULT_VEHTYPE" fromTaz="T1_880_1" toTaz="T1_17_1" departLane="free" departSpeed="max"/>
  <trip id="1956" depart="6.68" from="861090333" to="530490479#0" type="DEFAULT_VEHTYPE" fromTaz="T1_880_1" toTaz="T1_280_1" departLane="free" departSpeed="max"/>
  <trip id="557" depart="6.79" from="861090333" to="966059358" type="DEFAULT_VEHTYPE" fromTaz="T1_880_1" toTaz="T1_17_1" departLane="free" departSpeed="max"/>
  <trip id="1957" depart="6.85" from="861090333" to="530490479#0" type="DEFAULT_VEHTYPE" fromTaz="T1_880_1" toTaz="T1_280_1" departLane="free" departSpeed="max"/>
  <trip id="558" depart="7.00" from="861090333" to="966059358" type="DEFAULT_VEHTYPE" fromTaz="T1_880_1" toTaz="T1_17_1" departLane="free" departSpeed="max"/>
  <trip id="1958" depart="7.02" from="861090333" to="530490479#0" type="DEFAULT_VEHTYPE" fromTaz="T1_880_1" toTaz="T1_280_1" departLane="free" departSpeed="max"/>
  <trip id="1959" depart="7.20" from="861090333" to="530490479#0" type="DEFAULT_VEHTYPE" fromTaz="T1_880_1" toTaz="T1_280_1" departLane="free" departSpeed="max"/>
  <trip id="559" depart="7.22" from="861090333" to="966059358" type="DEFAULT_VEHTYPE" fromTaz="T1_880_1" toTaz="T1_17_1" departLane="free" departSpeed="max"/>
  <trip id="1960" depart="7.37" from="861090333" to="530490479#0" type="DEFAULT_VEHTYPE" fromTaz="T1_880_1" toTaz="T1_280_1" departLane="free" departSpeed="max"/>
  <trip id="6" depart="7.39" from="93631344" to="850757718" type="DEFAULT_VEHTYPE" fromTaz="T1_680_1" toTaz="T1_17_1" departLane="free" departSpeed="max"/>
  <trip id="560" depart="7.44" from="861090333" to="966059358" type="DEFAULT_VEHTYPE" fromTaz="T1_880_1" toTaz="T1_17_1" departLane="free" departSpeed="max"/>
  <trip id="270" depart="7.44" from="93631240" to="343498596" type="DEFAULT_VEHTYPE" fromTaz="T1_680_1" toTaz="T1_280_1" departLane="free" departSpeed="max"/>
  <trip id="1961" depart="7.54" from="861090333" to="530490479#0" type="DEFAULT_VEHTYPE" fromTaz="T1_880_1" toTaz="T1_280_1" departLane="free" departSpeed="max"/>
  <trip id="561" depart="7.65" from="861090333" to="966059358" type="DEFAULT_VEHTYPE" fromTaz="T1_880_1" toTaz="T1_17_1" departLane="free" departSpeed="max"/>
  <trip id="1962" depart="7.72" from="861090333" to="530490479#0" type="DEFAULT_VEHTYPE" fromTaz="T1_880_1" toTaz="T1_280_1" departLane="free" departSpeed="max"/>
  <trip id="562" depart="7.87" from="861090333" to="966059358" type="DEFAULT_VEHTYPE" fromTaz="T1_880_1" toTaz="T1_17_1" departLane="free" departSpeed="max"/>
  <trip id="1963" depart="7.89" from="861090333" to="530490479#0" type="DEFAULT_VEHTYPE" fromTaz="T1_880_1" toTaz="T1_280_1" departLane="free" departSpeed="max"/>
  <trip id="1964" depart="8.06" from="861090333" to="530490479#0" type="DEFAULT_VEHTYPE" fromTaz="T1_880_1" toTaz="T1_280_1" departLane="free" departSpeed="max"/>
  <trip id="563" depart="8.08" from="861090333" to="966059358" type="DEFAULT_VEHTYPE" fromTaz="T1_880_1" toTaz="T1_17_1" departLane="free" departSpeed="max"/>
  <trip id="1965" depart="8.24" from="861090333" to="530490479#0" type="DEFAULT_VEHTYPE" fromTaz="T1_880_1" toTaz="T1_280_1" departLane="free" departSpeed="max"/>
  <trip id="564" depart="8.30" from="861090333" to="966059358" type="DEFAULT_VEHTYPE" fromTaz="T1_880_1" toTaz="T1_17_1" departLane="free" departSpeed="max"/>
  <trip id="1966" depart="8.41" from="861090333" to="530490479#0" type="DEFAULT_VEHTYPE" fromTaz="T1_880_1" toTaz="T1_280_1" departLane="free" departSpeed="max"/>
  <trip id="565" depart="8.51" from="861090333" to="966059358" type="DEFAULT_VEHTYPE" fromTaz="T1_880_1" toTaz="T1_17_1" departLane="free" departSpeed="max"/>
  <trip id="7" depart="8.52" from="93631344" to="850757718" type="DEFAULT_VEHTYPE" fromTaz="T1_680_1" toTaz="T1_17_1" departLane="free" departSpeed="max"/>
  <trip id="1967" depart="8.58" from="861090333" to="530490479#0" type="DEFAULT_VEHTYPE" fromTaz="T1_880_1" toTaz="T1_280_1" departLane="free" departSpeed="max"/>
  <trip id="271" depart="8.59" from="93631240" to="343498596" type="DEFAULT_VEHTYPE" fromTaz="T1_680_1" toTaz="T1_280_1" departLane="free" departSpeed="max"/>
  <trip id="566" depart="8.73" from="861090333" to="966059358" type="DEFAULT_VEHTYPE" fromTaz="T1_880_1" toTaz="T1_17_1" departLane="free" departSpeed="max"/>
  <trip id="1968" depart="8.76" from="861090333" to="530490479#0" type="DEFAULT_VEHTYPE" fromTaz="T1_880_1" toTaz="T1_280_1" departLane="free" departSpeed="max"/>
  <trip id="1969" depart="8.93" from="861090333" to="530490479#0" type="DEFAULT_VEHTYPE" fromTaz="T1_880_1" toTaz="T1_280_1" departLane="free" departSpeed="max"/>
  <trip id="567" depart="8.94" from="861090333" to="966059358" type="DEFAULT_VEHTYPE" fromTaz="T1_880_1" toTaz="T1_17_1" departLane="free" departSpeed="max"/>
  <trip id="1970" depart="9.10" from="861090333" to="530490479#0" type="DEFAULT_VEHTYPE" fromTaz="T1_880_1" toTaz="T1_280_1" departLane="free" departSpeed="max"/>
  <trip id="568" depart="9.16" from="861090333" to="966059358" type="DEFAULT_VEHTYPE" fromTaz="T1_880_1" toTaz="T1_17_1" departLane="free" departSpeed="max"/>
  <trip id="1971" depart="9.28" from="861090333" to="530490479#0" type="DEFAULT_VEHTYPE" fromTaz="T1_880_1" toTaz="T1_280_1" departLane="free" departSpeed="max"/>
  <trip id="569" depart="9.38" from="861090333" to="966059358" type="DEFAULT_VEHTYPE" fromTaz="T1_880_1" toTaz="T1_17_1" departLane="free" departSpeed="max"/>
  <trip id="1972" depart="9.45" from="861090333" to="530490479#0" type="DEFAULT_VEHTYPE" fromTaz="T1_880_1" toTaz="T1_280_1" departLane="free" departSpeed="max"/>
  <trip id="570" depart="9.59" from="861090333" to="966059358" type="DEFAULT_VEHTYPE" fromTaz="T1_880_1" toTaz="T1_17_1" departLane="free" departSpeed="max"/>
  <trip id="1973" depart="9.62" from="861090333" to="530490479#0" type="DEFAULT_VEHTYPE" fromTaz="T1_880_1" toTaz="T1_280_1" departLane="free" departSpeed="max"/>
  <trip id="8" depart="9.66" from="93631344" to="850757718" type="DEFAULT_VEHTYPE" fromTaz="T1_680_1" toTaz="T1_17_1" departLane="free" departSpeed="max"/>
  <trip id="272" depart="9.73" from="93631240" to="343498596" type="DEFAULT_VEHTYPE" fromTaz="T1_680_1" toTaz="T1_280_1" departLane="free" departSpeed="max"/>
  <trip id="1974" depart="9.80" from="861090333" to="530490479#0" type="DEFAULT_VEHTYPE" fromTaz="T1_880_1" toTaz="T1_280_1" departLane="free" departSpeed="max"/>
  <trip id="571" depart="9.81" from="861090333" to="966059358" type="DEFAULT_VEHTYPE" fromTaz="T1_880_1" toTaz="T1_17_1" departLane="free" departSpeed="max"/>
  <trip id="1975" depart="9.97" from="861090333" to="530490479#0" type="DEFAULT_VEHTYPE" fromTaz="T1_880_1" toTaz="T1_280_1" departLane="free" departSpeed="max"/>
  <trip id="572" depart="10.02" from="861090333" to="966059358" type="DEFAULT_VEHTYPE" fromTaz="T1_880_1" toTaz="T1_17_1" departLane="free" departSpeed="max"/>
  <trip id="1976" depart="10.14" from="861090333" to="530490479#0" type="DEFAULT_VEHTYPE" fromTaz="T1_880_1" toTaz="T1_280_1" departLane="free" departSpeed="max"/>
  <trip id="573" depart="10.24" from="861090333" to="966059358" type="DEFAULT_VEHTYPE" fromTaz="T1_880_1" toTaz="T1_17_1" departLane="free" departSpeed="max"/>
  <trip id="1977" depart="10.32" from="861090333" to="530490479#0" type="DEFAULT_VEHTYPE" fromTaz="T1_880_1" toTaz="T1_280_1" departLane="free" departSpeed="max"/>
  <trip id="574" depart="10.45" from="861090333" to="966059358" type="DEFAULT_VEHTYPE" fromTaz="T1_880_1" toTaz="T1_17_1" departLane="free" departSpeed="max"/>
  <trip id="1978" depart="10.49" from="861090333" to="530490479#0" type="DEFAULT_VEHTYPE" fromTaz="T1_880_1" toTaz="T1_280_1" departLane="free" departSpeed="max"/>
  <trip id="1979" depart="10.66" from="861090333" to="530490479#0" type="DEFAULT_VEHTYPE" fromTaz="T1_880_1" toTaz="T1_280_1" departLane="free" departSpeed="max"/>
  <trip id="575" depart="10.67" from="861090333" to="966059358" type="DEFAULT_VEHTYPE" fromTaz="T1_880_1" toTaz="T1_17_1" departLane="free" departSpeed="max"/>
  <trip id="9" depart="10.80" from="93631344" to="850757718" type="DEFAULT_VEHTYPE" fromTaz="T1_680_1" toTaz="T1_17_1" departLane="free" departSpeed="max"/>
  <trip id="1980" depart="10.84" from="861090333" to="530490479#0" type="DEFAULT_VEHTYPE" fromTaz="T1_880_1" toTaz="T1_280_1" departLane="free" departSpeed="max"/>
  <trip id="576" depart="10.88" from="861090333" to="966059358" type="DEFAULT_VEHTYPE" fromTaz="T1_880_1" toTaz="T1_17_1" departLane="free" departSpeed="max"/>
  <trip id="273" depart="10.88" from="93631240" to="343498596" type="DEFAULT_VEHTYPE" fromTaz="T1_680_1" toTaz="T1_280_1" departLane="free" departSpeed="max"/>
  <trip id="1981" depart="11.01" from="861090333" to="530490479#0" type="DEFAULT_VEHTYPE" fromTaz="T1_880_1" toTaz="T1_280_1" departLane="free" departSpeed="max"/>
  <trip id="577" depart="11.10" from="861090333" to="966059358" type="DEFAULT_VEHTYPE" fromTaz="T1_880_1" toTaz="T1_17_1" departLane="free" departSpeed="max"/>
  <trip id="1982" depart="11.18" from="861090333" to="530490479#0" type="DEFAULT_VEHTYPE" fromTaz="T1_880_1" toTaz="T1_280_1" departLane="free" departSpeed="max"/>
  <trip id="578" depart="11.31" from="861090333" to="966059358" type="DEFAULT_VEHTYPE" fromTaz="T1_880_1" toTaz="T1_17_1" departLane="free" departSpeed="max"/>
  <trip id="1983" depart="11.36" from="861090333" to="530490479#0" type="DEFAULT_VEHTYPE" fromTaz="T1_880_1" toTaz="T1_280_1" departLane="free" departSpeed="max"/>
  <trip id="579" depart="11.53" from="861090333" to="966059358" type="DEFAULT_VEHTYPE" fromTaz="T1_880_1" toTaz="T1_17_1" departLane="free" departSpeed="max"/>
  <trip id="1984" depart="11.53" from="861090333" to="530490479#0" type="DEFAULT_VEHTYPE" fromTaz="T1_880_1" toTaz="T1_280_1" departLane="free" departSpeed="max"/>
  <trip id="1985" depart="11.71" from="861090333" to="530490479#0" type="DEFAULT_VEHTYPE" fromTaz="T1_880_1" toTaz="T1_280_1" departLane="free" departSpeed="max"/>
  <trip id="580" depart="11.75" from="861090333" to="966059358" type="DEFAULT_VEHTYPE" fromTaz="T1_880_1" toTaz="T1_17_1" departLane="free" departSpeed="max"/>
  <trip id="1986" depart="11.88" from="861090333" to="530490479#0" type="DEFAULT_VEHTYPE" fromTaz="T1_880_1" toTaz="T1_280_1" departLane="free" departSpeed="max"/>
  <trip id="10" depart="11.93" from="93631344" to="850757718" type="DEFAULT_VEHTYPE" fromTaz="T1_680_1" toTaz="T1_17_1" departLane="free" departSpeed="max"/>
  <trip id="581" depart="11.96" from="861090333" to="966059358" type="DEFAULT_VEHTYPE" fromTaz="T1_880_1" toTaz="T1_17_1" departLane="free" departSpeed="max"/>
  <trip id="274" depart="12.02" from="93631240" to="343498596" type="DEFAULT_VEHTYPE" fromTaz="T1_680_1" toTaz="T1_280_1" departLane="free" departSpeed="max"/>
  <trip id="1987" depart="12.05" from="861090333" to="530490479#0" type="DEFAULT_VEHTYPE" fromTaz="T1_880_1" toTaz="T1_280_1" departLane="free" departSpeed="max"/>
  <trip id="582" depart="12.18" from="861090333" to="966059358" type="DEFAULT_VEHTYPE" fromTaz="T1_880_1" toTaz="T1_17_1" departLane="free" departSpeed="max"/>
  <trip id="1988" depart="12.23" from="861090333" to="530490479#0" type="DEFAULT_VEHTYPE" fromTaz="T1_880_1" toTaz="T1_280_1" departLane="free" departSpeed="max"/>
  <trip id="583" depart="12.39" from="861090333" to="966059358" type="DEFAULT_VEHTYPE" fromTaz="T1_880_1" toTaz="T1_17_1" departLane="free" departSpeed="max"/>
  <trip id="1989" depart="12.40" from="861090333" to="530490479#0" type="DEFAULT_VEHTYPE" fromTaz="T1_880_1" toTaz="T1_280_1" departLane="free" departSpeed="max"/>
  <trip id="1990" depart="12.57" from="861090333" to="530490479#0" type="DEFAULT_VEHTYPE" fromTaz="T1_880_1" toTaz="T1_280_1" departLane="free" departSpeed="max"/>
  <trip id="584" depart="12.61" from="861090333" to="966059358" type="DEFAULT_VEHTYPE" fromTaz="T1_880_1" toTaz="T1_17_1" departLane="free" departSpeed="max"/>
  <trip id="1991" depart="12.75" from="861090333" to="530490479#0" type="DEFAULT_VEHTYPE" fromTaz="T1_880_1" toTaz="T1_280_1" departLane="free" departSpeed="max"/>
  <trip id="585" depart="12.82" from="861090333" to="966059358" type="DEFAULT_VEHTYPE" fromTaz="T1_880_1" toTaz="T1_17_1" departLane="free" departSpeed="max"/>
  <trip id="1992" depart="12.92" from="861090333" to="530490479#0" type="DEFAULT_VEHTYPE" fromTaz="T1_880_1" toTaz="T1_280_1" departLane="free" departSpeed="max"/>
  <trip id="586" depart="13.04" from="861090333" to="966059358" type="DEFAULT_VEHTYPE" fromTaz="T1_880_1" toTaz="T1_17_1" departLane="free" departSpeed="max"/>
  <trip id="11" depart="13.07" from="93631344" to="850757718" type="DEFAULT_VEHTYPE" fromTaz="T1_680_1" toTaz="T1_17_1" departLane="free" departSpeed="max"/>
  <trip id="1993" depart="13.09" from="861090333" to="530490479#0" type="DEFAULT_VEHTYPE" fromTaz="T1_880_1" toTaz="T1_280_1" departLane="free" departSpeed="max"/>
  <trip id="275" depart="13.17" from="93631240" to="343498596" type="DEFAULT_VEHTYPE" fromTaz="T1_680_1" toTaz="T1_280_1" departLane="free" departSpeed="max"/>
  <trip id="587" depart="13.25" from="861090333" to="966059358" type="DEFAULT_VEHTYPE" fromTaz="T1_880_1" toTaz="T1_17_1" departLane="free" departSpeed="max"/>
  <trip id="1994" depart="13.27" from="861090333" to="530490479#0" type="DEFAULT_VEHTYPE" fromTaz="T1_880_1" toTaz="T1_280_1" departLane="free" departSpeed="max"/>
  <trip id="1995" depart="13.44" from="861090333" to="530490479#0" type="DEFAULT_VEHTYPE" fromTaz="T1_880_1" toTaz="T1_280_1" departLane="free" departSpeed="max"/>
  <trip id="588" depart="13.47" from="861090333" to="966059358" type="DEFAULT_VEHTYPE" fromTaz="T1_880_1" toTaz="T1_17_1" departLane="free" departSpeed="max"/>
  <trip id="1996" depart="13.61" from="861090333" to="530490479#0" type="DEFAULT_VEHTYPE" fromTaz="T1_880_1" toTaz="T1_280_1" departLane="free" departSpeed="max"/>
  <trip id="589" depart="13.69" from="861090333" to="966059358" type="DEFAULT_VEHTYPE" fromTaz="T1_880_1" toTaz="T1_17_1" departLane="free" departSpeed="max"/>
  <trip id="1997" depart="13.79" from="861090333" to="530490479#0" type="DEFAULT_VEHTYPE" fromTaz="T1_880_1" toTaz="T1_280_1" departLane="free" departSpeed="max"/>
  <trip id="590" depart="13.90" from="861090333" to="966059358" type="DEFAULT_VEHTYPE" fromTaz="T1_880_1" toTaz="T1_17_1" departLane="free" departSpeed="max"/>
  <trip id="1998" depart="13.96" from="861090333" to="530490479#0" type="DEFAULT_VEHTYPE" fromTaz="T1_880_1" toTaz="T1_280_1" departLane="free" departSpeed="max"/>
  <trip id="591" depart="14.12" from="861090333" to="966059358" type="DEFAULT_VEHTYPE" fromTaz="T1_880_1" toTaz="T1_17_1" departLane="free" departSpeed="max"/>
  <trip id="1999" depart="14.13" from="861090333" to="530490479#0" type="DEFAULT_VEHTYPE" fromTaz="T1_880_1" toTaz="T1_280_1" departLane="free" departSpeed="max"/>
  <trip id="12" depart="14.20" from="93631344" to="850757718" type="DEFAULT_VEHTYPE" fromTaz="T1_680_1" toTaz="T1_17_1" departLane="free" departSpeed="max"/>
  <trip id="276" depart="14.31" from="93631240" to="343498596" type="DEFAULT_VEHTYPE" fromTaz="T1_680_1" toTaz="T1_280_1" departLane="free" departSpeed="max"/>
  <trip id="2000" depart="14.31" from="861090333" to="530490479#0" type="DEFAULT_VEHTYPE" fromTaz="T1_880_1" toTaz="T1_280_1" departLane="free" departSpeed="max"/>
  <trip id="592" depart="14.33" from="861090333" to="966059358" type="DEFAULT_VEHTYPE" fromTaz="T1_880_1" toTaz="T1_17_1" departLane="free" departSpeed="max"/>
  <trip id="2001" depart="14.48" from="861090333" to="530490479#0" type="DEFAULT_VEHTYPE" fromTaz="T1_880_1" toTaz="T1_280_1" departLane="free" departSpeed="max"/>
  <trip id="593" depart="14.55" from="861090333" to="966059358" type="DEFAULT_VEHTYPE" fromTaz="T1_880_1" toTaz="T1_17_1" departLane="free" departSpeed="max"/>
  <trip id="2002" depart="14.65" from="861090333" to="530490479#0" type="DEFAULT_VEHTYPE" fromTaz="T1_880_1" toTaz="T1_280_1" departLane="free" departSpeed="max"/>
  <trip id="594" depart="14.76" from="861090333" to="966059358" type="DEFAULT_VEHTYPE" fromTaz="T1_880_1" toTaz="T1_17_1" departLane="free" departSpeed="max"/>
  <trip id="2003" depart="14.83" from="861090333" to="530490479#0" type="DEFAULT_VEHTYPE" fromTaz="T1_880_1" toTaz="T1_280_1" departLane="free" departSpeed="max"/>
  <trip id="595" depart="14.98" from="861090333" to="966059358" type="DEFAULT_VEHTYPE" fromTaz="T1_880_1" toTaz="T1_17_1" departLane="free" departSpeed="max"/>
  <trip id="2004" depart="15.00" from="861090333" to="530490479#0" type="DEFAULT_VEHTYPE" fromTaz="T1_880_1" toTaz="T1_280_1" departLane="free" departSpeed="max"/>
  <trip id="2005" depart="15.17" from="861090333" to="530490479#0" type="DEFAULT_VEHTYPE" fromTaz="T1_880_1" toTaz="T1_280_1" departLane="free" departSpeed="max"/>
  <trip id="596" depart="15.19" from="861090333" to="966059358" type="DEFAULT_VEHTYPE" fromTaz="T1_880_1" toTaz="T1_17_1" departLane="free" departSpeed="max"/>
  <trip id="13" depart="15.34" from="93631344" to="850757718" type="DEFAULT_VEHTYPE" fromTaz="T1_680_1" toTaz="T1_17_1" departLane="free" departSpeed="max"/>