<?xml version='1.0' encoding='utf-8'?>
<routes>
  <trip id="1177" depart="0.09" from="93631240" to="343498596" type="DEFAULT_VEHTYPE" fromTaz="T1_680_1" toTaz="T1_280_1" departLane="free" departSpeed="max"/>
  <trip id="3728" depart="0.11" from="861090333" to="530490479#0" type="DEFAULT_VEHTYPE" fromTaz="T1_880_1" toTaz="T1_280_1" departLane="free" departSpeed="max"/>
  <trip id="0" depart="0.13" from="93631344" to="850757718" type="DEFAULT_VEHTYPE" fromTaz="T1_680_1" toTaz="T1_17_1" departLane="free" departSpeed="max"/>
  <trip id="2831" depart="0.17" from="861090333" to="966059358" type="DEFAULT_VEHTYPE" fromTaz="T1_880_1" toTaz="T1_17_1" departLane="free" departSpeed="max"/>
  <trip id="1178" depart="0.27" from="93631240" to="343498596" type="DEFAULT_VEHTYPE" fromTaz="T1_680_1" toTaz="T1_280_1" departLane="free" departSpeed="max"/>
  <trip id="3729" depart="0.34" from="861090333" to="530490479#0" type="DEFAULT_VEHTYPE" fromTaz="T1_880_1" toTaz="T1_280_1" departLane="free" departSpeed="max"/>
  <trip id="1" depart="0.38" from="93631344" to="850757718" type="DEFAULT_VEHTYPE" fromTaz="T1_680_1" toTaz="T1_17_1" departLane="free" departSpeed="max"/>
  <trip id="1179" depart="0.45" from="93631240" to="343498596" type="DEFAULT_VEHTYPE" fromTaz="T1_680_1" toTaz="T1_280_1" departLane="free" departSpeed="max"/>
  <trip id="2832" depart="0.50" from="861090333" to="966059358" type="DEFAULT_VEHTYPE" fromTaz="T1_880_1" toTaz="T1_17_1" departLane="free" departSpeed="max"/>
  <trip id="3730" depart="0.56" from="861090333" to="530490479#0" type="DEFAULT_VEHTYPE" fromTaz="T1_880_1" toTaz="T1_280_1" departLane="free" departSpeed="max"/>
  <trip id="1180" depart="0.63" from="93631240" to="343498596" type="DEFAULT_VEHTYPE" fromTaz="T1_680_1" toTaz="T1_280_1" departLane="free" departSpeed="max"/>
  <trip id="2" depart="0.64" from="93631344" to="850757718" type="DEFAULT_VEHTYPE" fromTaz="T1_680_1" toTaz="T1_17_1" departLane="free" departSpeed="max"/>
  <trip id="3731" depart="0.79" from="861090333" to="530490479#0" type="DEFAULT_VEHTYPE" fromTaz="T1_880_1" toTaz="T1_280_1" departLane="free" departSpeed="max"/>
  <trip id="1181" depart="0.82" from="93631240" to="343498596" type="DEFAULT_VEHTYPE" fromTaz="T1_680_1" toTaz="T1_280_1" departLane="free" departSpeed="max"/>
  <trip id="2833" depart="0.84" from="861090333" to="966059358" type="DEFAULT_VEHTYPE" fromTaz="T1_880_1" toTaz="T1_17_1" departLane="free" departSpeed="max"/>
  <trip id="3" depart="0.89" from="93631344" to="850757718" type="DEFAULT_VEHTYPE" fromTaz="T1_680_1" toTaz="T1_17_1" departLane="free" departSpeed="max"/>
  <trip id="1182" depart="1.00" from="93631240" to="343498596" type="DEFAULT_VEHTYPE" fromTaz="T1_680_1" toTaz="T1_280_1" departLane="free" departSpeed="max"/>
  <trip id="3732" depart="1.01" from="861090333" to="530490479#0" type="DEFAULT_VEHTYPE" fromTaz="T1_880_1" toTaz="T1_280_1" departLane="free" departSpeed="max"/>
  <trip id="4" depart="1.15" from="93631344" to="850757718" type="DEFAULT_VEHTYPE" fromTaz="T1_680_1" toTaz="T1_17_1" departLane="free" departSpeed="max"/>
  <trip id="2834" depart="1.17" from="861090333" to="966059358" type="DEFAULT_VEHTYPE" fromTaz="T1_880_1" toTaz="T1_17_1" departLane="free" departSpeed="max"/>
  <trip id="1183" depart="1.18" from="93631240" to="343498596" type="DEFAULT_VEHTYPE" fromTaz="T1_680_1" toTaz="T1_280_1" departLane="free" departSpeed="max"/>
  <trip id="3733" depart="1.24" from="861090333" to="530490479#0" type="DEFAULT_VEHTYPE" fromTaz="T1_880_1" toTaz="T1_280_1" departLane="free" departSpeed="max"/>
  <trip id="1184" depart="1.36" from="93631240" to="343498596" type="DEFAULT_VEHTYPE" fromTaz="T1_680_1" toTaz="T1_280_1" departLane="free" departSpeed="max"/>
  <trip id="5" depart="1.40" from="93631344" to="850757718" type="DEFAULT_VEHTYPE" fromTaz="T1_680_1" toTaz="T1_17_1" departLane="free" departSpeed="max"/>
  <trip id="3734" depart="1.46" from="861090333" to="530490479#0" type="DEFAULT_VEHTYPE" fromTaz="T1_880_1" toTaz="T1_280_1" departLane="free" departSpeed="max"/>
  <trip id="2835" depart="1.51" from="861090333" to="966059358" type="DEFAULT_VEHTYPE" fromTaz="T1_880_1" toTaz="T1_17_1" departLane="free" departSpeed="max"/>
  <trip id="1185" depart="1.54" from="93631240" to="343498596" type="DEFAULT_VEHTYPE" fromTaz="T1_680_1" toTaz="T1_280_1" departLane="free" departSpeed="max"/>
  <trip id="6" depart="1.66" from="93631344" to="850757718" type="DEFAULT_VEHTYPE" fromTaz="T1_680_1" toTaz="T1_17_1" departLane="free" departSpeed="max"/>
  <trip id="3735" depart="1.68" from="861090333" to="530490479#0" type="DEFAULT_VEHTYPE" fromTaz="T1_880_1" toTaz="T1_280_1" departLane="free" departSpeed="max"/>
  <trip id="1186" depart="1.72" from="93631240" to="343498596" type="DEFAULT_VEHTYPE" fromTaz="T1_680_1" toTaz="T1_280_1" departLane="free" departSpeed="max"/>
  <trip id="2836" depart="1.84" from="861090333" to="966059358" type="DEFAULT_VEHTYPE" fromTaz="T1_880_1" toTaz="T1_17_1" departLane="free" departSpeed="max"/>
  <trip id="1187" depart="1.90" from="93631240" to="343498596" type="DEFAULT_VEHTYPE" fromTaz="T1_680_1" toTaz="T1_280_1" departLane="free" departSpeed="max"/>
  <trip id="3736" depart="1.91" from="861090333" to="530490479#0" type="DEFAULT_VEHTYPE" fromTaz="T1_880_1" toTaz="T1_280_1" departLane="free" departSpeed="max"/>
  <trip id="7" depart="1.91" from="93631344" to="850757718" type="DEFAULT_VEHTYPE" fromTaz="T1_680_1" toTaz="T1_17_1" departLane="free" departSpeed="max"/>
  <trip id="1188" depart="2.09" from="93631240" to="343498596" type="DEFAULT_VEHTYPE" fromTaz="T1_680_1" toTaz="T1_280_1" departLane="free" departSpeed="max"/>
  <trip id="3737" depart="2.13" from="861090333" to="530490479#0" type="DEFAULT_VEHTYPE" fromTaz="T1_880_1" toTaz="T1_280_1" departLane="free" departSpeed="max"/>
  <trip id="8" depart="2.17" from="93631344" to="850757718" type="DEFAULT_VEHTYPE" fromTaz="T1_680_1" toTaz="T1_17_1" departLane="free" departSpeed="max"/>
  <trip id="2837" depart="2.17" from="861090333" to="966059358" type="DEFAULT_VEHTYPE" fromTaz="T1_880_1" toTaz="T1_17_1" departLane="free" departSpeed="max"/>
  <trip id="1189" depart="2.27" from="93631240" to="343498596" type="DEFAULT_VEHTYPE" fromTaz="T1_680_1" toTaz="T1_280_1" departLane="free" departSpeed="max"/>
  <trip id="3738" depart="2.36" from="861090333" to="530490479#0" type="DEFAULT_VEHTYPE" fromTaz="T1_880_1" toTaz="T1_280_1" departLane="free" departSpeed="max"/>
  <trip id="9" depart="2.42" from="93631344" to="850757718" type="DEFAULT_VEHTYPE" fromTaz="T1_680_1" toTaz="T1_17_1" departLane="free" departSpeed="max"/>
  <trip id="1190" depart="2.45" from="93631240" to="343498596" type="DEFAULT_VEHTYPE" fromTaz="T1_680_1" toTaz="T1_280_1" departLane="free" departSpeed="max"/>
  <trip id="2838" depart="2.51" from="861090333" to="966059358" type="DEFAULT_VEHTYPE" fromTaz="T1_880_1" toTaz="T1_17_1" departLane="free" departSpeed="max"/>
  <trip id="3739" depart="2.58" from="861090333" to="530490479#0" type="DEFAULT_VEHTYPE" fromTaz="T1_880_1" toTaz="T1_280_1" departLane="free" departSpeed="max"/>
  <trip id="1191" depart="2.63" from="93631240" to="343498596" type="DEFAULT_VEHTYPE" fromTaz="T1_680_1" toTaz="T1_280_1" departLane="free" departSpeed="max"/>
  <trip id="10" depart="2.68" from="93631344" to="850757718" type="DEFAULT_VEHTYPE" fromTaz="T1_680_1" toTaz="T1_17_1" departLane="free" departSpeed="max"/>
  <trip id="3740" depart="2.81" from="861090333" to="530490479#0" type="DEFAULT_VEHTYPE" fromTaz="T1_880_1" toTaz="T1_280_1" departLane="free" departSpeed="max"/>
  <trip id="1192" depart="2.81" from="93631240" to="343498596" type="DEFAULT_VEHTYPE" fromTaz="T1_680_1" toTaz="T1_280_1" departLane="free" departSpeed="max"/>
  <trip id="2839" depart="2.84" from="861090333" to="966059358" type="DEFAULT_VEHTYPE" fromTaz="T1_880_1" toTaz="T1_17_1" departLane="free" departSpeed="max"/>
  <trip id="11" depart="2.93" from="93631344" to="850757718" type="DEFAULT_VEHTYPE" fromTaz="T1_680_1" toTaz="T1_17_1" departLane="free" departSpeed="max"/>
  <trip id="1193" depart="2.99" from="93631240" to="343498596" type="DEFAULT_VEHTYPE" fromTaz="T1_680_1" toTaz="T1_280_1" departLane="free" departSpeed="max"/>
  <trip id="3741" depart="3.03" from="861090333" to="530490479#0" type="DEFAULT_VEHTYPE" fromTaz="T1_880_1" toTaz="T1_280_1" departLane="free" departSpeed="max"/>
  <trip id="1194" depart="3.17" from="93631240" to="343498596" type="DEFAULT_VEHTYPE" fromTaz="T1_680_1" toTaz="T1_280_1" departLane="free" departSpeed="max"/>
  <trip id="2840" depart="3.18" from="861090333" to="966059358" type="DEFAULT_VEHTYPE" fromTaz="T1_880_1" toTaz="T1_17_1" departLane="free" departSpeed="max"/>
  <trip id="12" depart="3.19" from="93631344" to="850757718" type="DEFAULT_VEHTYPE" fromTaz="T1_680_1" toTaz="T1_17_1" departLane="free" departSpeed="max"/>
  <trip id="3742" depart="3.26" from="861090333" to="530490479#0" type="DEFAULT_VEHTYPE" fromTaz="T1_880_1" toTaz="T1_280_1" departLane="free" departSpeed="max"/>
  <trip id="1195" depart="3.36" from="93631240" to="343498596" type="DEFAULT_VEHTYPE" fromTaz="T1_680_1" toTaz="T1_280_1" departLane="free" departSpeed="max"/>
  <trip id="13" depart="3.44" from="93631344" to="850757718" type="DEFAULT_VEHTYPE" fromTaz="T1_680_1" toTaz="T1_17_1" departLane="free" departSpeed="max"/>
  <trip id="3743" depart="3.48" from="861090333" to="530490479#0" type="DEFAULT_VEHTYPE" fromTaz="T1_880_1" toTaz="T1_280_1" departLane="free" departSpeed="max"/>
  <trip id="2841" depart="3.51" from="861090333" to="966059358" type="DEFAULT_VEHTYPE" fromTaz="T1_880_1" toTaz="T1_17_1" departLane="free" departSpeed="max"/>
  <trip id="1196" depart="3.54" from="93631240" to="343498596" type="DEFAULT_VEHTYPE" fromTaz="T1_680_1" toTaz="T1_280_1" departLane="free" departSpeed="max"/>
  <trip id="14" depart="3.70" from="93631344" to="850757718" type="DEFAULT_VEHTYPE" fromTaz="T1_680_1" toTaz="T1_17_1" departLane="free" departSpeed="max"/>
  <trip id="3744" depart="3.71" from="861090333" to="530490479#0" type="DEFAULT_VEHTYPE" fromTaz="T1_880_1" toTaz="T1_280_1" departLane="free" departSpeed="max"/>
  <trip id="1197" depart="3.72" from="93631240" to="343498596" type="DEFAULT_VEHTYPE" fromTaz="T1_680_1" toTaz="T1_280_1" departLane="free" departSpeed="max"/>
  <trip id="2842" depart="3.85" from="861090333" to="966059358" type="DEFAULT_VEHTYPE" fromTaz="T1_880_1" toTaz="T1_17_1" departLane="free" departSpeed="max"/>
  <trip id="1198" depart="3.90" from="93631240" to="343498596" type="DEFAULT_VEHTYPE" fromTaz="T1_680_1" toTaz="T1_280_1" departLane="free" departSpeed="max"/>
  <trip id="3745" depart="3.93" from="861090333" to="530490479#0" type="DEFAULT_VEHTYPE" fromTaz="T1_880_1" toTaz="T1_280_1" departLane="free" departSpeed="max"/>
  <trip id="15" depart="3.95" from="93631344" to="850757718" type="DEFAULT_VEHTYPE" fromTaz="T1_680_1" toTaz="T1_17_1" departLane="free" departSpeed="max"/>
  <trip id="1199" depart="4.08" from="93631240" to="343498596" type="DEFAULT_VEHTYPE" fromTaz="T1_680_1" toTaz="T1_280_1" departLane="free" departSpeed="max"/>
  <trip id="3746" depart="4.15" from="861090333" to="530490479#0" type="DEFAULT_VEHTYPE" fromTaz="T1_880_1" toTaz="T1_280_1" departLane="free" departSpeed="max"/>
  <trip id="2843" depart="4.18" from="861090333" to="966059358" type="DEFAULT_VEHTYPE" fromTaz="T1_880_1" toTaz="T1_17_1" departLane="free" departSpeed="max"/>
  <trip id="16" depart="4.21" from="93631344" to="850757718" type="DEFAULT_VEHTYPE" fromTaz="T1_680_1" toTaz="T1_17_1" departLane="free" departSpeed="max"/>
  <trip id="1200" depart="4.26" from="93631240" to="343498596" type="DEFAULT_VEHTYPE" fromTaz="T1_680_1" toTaz="T1_280_1" departLane="free" departSpeed="max"/>
  <trip id="3747" depart="4.38" from="861090333" to="530490479#0" type="DEFAULT_VEHTYPE" fromTaz="T1_880_1" toTaz="T1_280_1" departLane="free" departSpeed="max"/>
  <trip id="1201" depart="4.44" from="93631240" to="343498596" type="DEFAULT_VEHTYPE" fromTaz="T1_680_1" toTaz="T1_280_1" departLane="free" departSpeed="max"/>
  <trip id="17" depart="4.46" from="93631344" to="850757718" type="DEFAULT_VEHTYPE" fromTaz="T1_680_1" toTaz="T1_17_1" departLane="free" departSpeed="max"/>
  <trip id="2844" depart="4.52" from="861090333" to="966059358" type="DEFAULT_VEHTYPE" fromTaz="T1_880_1" toTaz="T1_17_1" departLane="free" departSpeed="max"/>
  <trip id="3748" depart="4.60" from="861090333" to="530490479#0" type="DEFAULT_VEHTYPE" fromTaz="T1_880_1" toTaz="T1_280_1" departLane="free" departSpeed="max"/>
  <trip id="1202" depart="4.63" from="93631240" to="343498596" type="DEFAULT_VEHTYPE" fromTaz="T1_680_1" toTaz="T1_280_1" departLane="free" departSpeed="max"/>
  <trip id="18" depart="4.72" from="93631344" to="850757718" type="DEFAULT_VEHTYPE" fromTaz="T1_680_1" toTaz="T1_17_1" departLane="free" departSpeed="max"/>
  <trip id="1203" depart="4.81" from="93631240" to="343498596" type="DEFAULT_VEHTYPE" fromTaz="T1_680_1" toTaz="T1_280_1" departLane="free" departSpeed="max"/>
  <trip id="3749" depart="4.83" from="861090333" to="530490479#0" type="DEFAULT_VEHTYPE" fromTaz="T1_880_1" toTaz="T1_280_1" departLane="free" departSpeed="max"/>
  <trip id="2845" depart="4.85" from="861090333" to="966059358" type="DEFAULT_VEHTYPE" fromTaz="T1_880_1" toTaz="T1_17_1" departLane="free" departSpeed="max"/>
  <trip id="19" depart="4.97" from="93631344" to="850757718" type="DEFAULT_VEHTYPE" fromTaz="T1_680_1" toTaz="T1_17_1" departLane="free" departSpeed="max"/>
  <trip id="1204" depart="4.99" from="93631240" to="343498596" type="DEFAULT_VEHTYPE" fromTaz="T1_680_1" toTaz="T1_280_1" departLane="free" departSpeed="max"/>
  <trip id="3750" depart="5.05" from="861090333" to="530490479#0" type="DEFAULT_VEHTYPE" fromTaz="T1_880_1" toTaz="T1_280_1" departLane="free" departSpeed="max"/>
  <trip id="1205" depart="5.17" from="93631240" to="343498596" type="DEFAULT_VEHTYPE" fromTaz="T1_680_1" toTaz="T1_280_1" departLane="free" departSpeed="max"/>
  <trip id="2846" depart="5.18" from="861090333" to="966059358" type="DEFAULT_VEHTYPE" fromTaz="T1_880_1" toTaz="T1_17_1" departLane="free" departSpeed="max"/>
  <trip id="20" depart="5.23" from="93631344" to="850757718" type="DEFAULT_VEHTYPE" fromTaz="T1_680_1" toTaz="T1_17_1" departLane="free" departSpeed="max"/>
  <trip id="3751" depart="5.28" from="861090333" to="530490479#0" type="DEFAULT_VEHTYPE" fromTaz="T1_880_1" toTaz="T1_280_1" departLane="free" departSpeed="max"/>
  <trip id="1206" depart="5.35" from="93631240" to="343498596" type="DEFAULT_VEHTYPE" fromTaz="T1_680_1" toTaz="T1_280_1" departLane="free" departSpeed="max"/>
  <trip id="21" depart="5.48" from="93631344" to="850757718" type="DEFAULT_VEHTYPE" fromTaz="T1_680_1" toTaz="T1_17_1" departLane="free" departSpeed="max"/>
  <trip id="3752" depart="5.50" from="861090333" to="530490479#0" type="DEFAULT_VEHTYPE" fromTaz="T1_880_1" toTaz="T1_280_1" departLane="free" departSpeed="max"/>
  <trip id="2847" depart="5.52" from="861090333" to="966059358" type="DEFAULT_VEHTYPE" fromTaz="T1_880_1" toTaz="T1_17_1" departLane="free" departSpeed="max"/>
  <trip id="1207" depart="5.53" from="93631240" to="343498596" type="DEFAULT_VEHTYPE" fromTaz="T1_680_1" toTaz="T1_280_1" departLane="free" departSpeed="max"/>
  <trip id="1208" depart="5.71" from="93631240" to="343498596" type="DEFAULT_VEHTYPE" fromTaz="T1_680_1" toTaz="T1_280_1" departLane="free" departSpeed="max"/>
  <trip id="3753" depart="5.73" from="861090333" to="530490479#0" type="DEFAULT_VEHTYPE" fromTaz="T1_880_1" toTaz="T1_280_1" departLane="free" departSpeed="max"/>
  <trip id="22" depart="5.73" from="93631344" to="850757718" type="DEFAULT_VEHTYPE" fromTaz="T1_680_1" toTaz="T1_17_1" departLane="free" departSpeed="max"/>
  <trip id="2848" depart="5.85" from="861090333" to="966059358" type="DEFAULT_VEHTYPE" fromTaz="T1_880_1" toTaz="T1_17_1" departLane="free" departSpeed="max"/>
  <trip id="1209" depart="5.89" from="93631240" to="343498596" type="DEFAULT_VEHTYPE" fromTaz="T1_680_1" toTaz="T1_280_1" departLane="free" departSpeed="max"/>
  <trip id="3754" depart="5.95" from="861090333" to="530490479#0" type="DEFAULT_VEHTYPE" fromTaz="T1_880_1" toTaz="T1_280_1" departLane="free" departSpeed="max"/>
  <trip id="23" depart="5.99" from="93631344" to="850757718" type="DEFAULT_VEHTYPE" fromTaz="T1_680_1" toTaz="T1_17_1" departLane="free" departSpeed="max"/>
  <trip id="1210" depart="6.08" from="93631240" to="343498596" type="DEFAULT_VEHTYPE" fromTaz="T1_680_1" toTaz="T1_280_1" departLane="free" departSpeed="max"/>
  <trip id="3755" depart="6.18" from="861090333" to="530490479#0" type="DEFAULT_VEHTYPE" fromTaz="T1_880_1" toTaz="T1_280_1" departLane="free" departSpeed="max"/>
  <trip id="2849" depart="6.19" from="861090333" to="966059358" type="DEFAULT_VEHTYPE" fromTaz="T1_880_1" toTaz="T1_17_1" departLane="free" departSpeed="max"/>
  <trip id="24" depart="6.24" from="93631344" to="850757718" type="DEFAULT_VEHTYPE" fromTaz="T1_680_1" toTaz="T1_17_1" departLane="free" departSpeed="max"/>
  <trip id="1211" depart="6.26" from="93631240" to="343498596" type="DEFAULT_VEHTYPE" fromTaz="T1_680_1" toTaz="T1_280_1" departLane="free" departSpeed="max"/>
  <trip id="3756" depart="6.40" from="861090333" to="530490479#0" type="DEFAULT_VEHTYPE" fromTaz="T1_880_1" toTaz="T1_280_1" departLane="free" departSpeed="max"/>
  <trip id="1212" depart="6.44" from="93631240" to="343498596" type="DEFAULT_VEHTYPE" fromTaz="T1_680_1" toTaz="T1_280_1" departLane="free" departSpeed="max"/>
  <trip id="25" depart="6.50" from="93631344" to="850757718" type="DEFAULT_VEHTYPE" fromTaz="T1_680_1" toTaz="T1_17_1" departLane="free" departSpeed="max"/>
  <trip id="2850" depart="6.52" from="861090333" to="966059358" type="DEFAULT_VEHTYPE" fromTaz="T1_880_1" toTaz="T1_17_1" departLane="free" departSpeed="max"/>
  <trip id="1213" depart="6.62" from="93631240" to="343498596" type="DEFAULT_VEHTYPE" fromTaz="T1_680_1" toTaz="T1_280_1" departLane="free" departSpeed="max"/>
  <trip id="3757" depart="6.62" from="861090333" to="530490479#0" type="DEFAULT_VEHTYPE" fromTaz="T1_880_1" toTaz="T1_280_1" departLane="free" departSpeed="max"/>
  <trip id="26" depart="6.75" from="93631344" to="850757718" type="DEFAULT_VEHTYPE" fromTaz="T1_680_1" toTaz="T1_17_1" departLane="free" departSpeed="max"/>
  <trip id="1214" depart="6.80" from="93631240" to="343498596" type="DEFAULT_VEHTYPE" fromTaz="T1_680_1" toTaz="T1_280_1" departLane="free" departSpeed="max"/>
  <trip id="3758" depart="6.85" from="861090333" to="530490479#0" type="DEFAULT_VEHTYPE" fromTaz="T1_880_1" toTaz="T1_280_1" departLane="free" departSpeed="max"/>
  <trip id="2851" depart="6.86" from="861090333" to="966059358" type="DEFAULT_VEHTYPE" fromTaz="T1_880_1" toTaz="T1_17_1" departLane="free" departSpeed="max"/>
  <trip id="1215" depart="6.98" from="93631240" to="343498596" type="DEFAULT_VEHTYPE" fromTaz="T1_680_1" toTaz="T1_280_1" departLane="free" departSpeed="max"/>
  <trip id="27" depart="7.01" from="93631344" to="850757718" type="DEFAULT_VEHTYPE" fromTaz="T1_680_1" toTaz="T1_17_1" departLane="free" departSpeed="max"/>
  <trip id="3759" depart="7.07" from="861090333" to="530490479#0" type="DEFAULT_VEHTYPE" fromTaz="T1_880_1" toTaz="T1_280_1" departLane="free" departSpeed="max"/>
  <trip id="1216" depart="7.16" from="93631240" to="343498596" type="DEFAULT_VEHTYPE" fromTaz="T1_680_1" toTaz="T1_280_1" departLane="free" departSpeed="max"/>
  <trip id="2852" depart="7.19" from="861090333" to="966059358" type="DEFAULT_VEHTYPE" fromTaz="T1_880_1" toTaz="T1_17_1" departLane="free" departSpeed="max"/>
  <trip id="28" depart="7.26" from="93631344" to="850757718" type="DEFAULT_VEHTYPE" fromTaz="T1_680_1" toTaz="T1_17_1" departLane="free" departSpeed="max"/>
  <trip id="3760" depart="7.30" from="861090333" to="530490479#0" type="DEFAULT_VEHTYPE" fromTaz="T1_880_1" toTaz="T1_280_1" departLane="free" departSpeed="max"/>
  <trip id="1217" depart="7.35" from="93631240" to="343498596" type="DEFAULT_VEHTYPE" fromTaz="T1_680_1" toTaz="T1_280_1" departLane="free" departSpeed="max"/>
  <trip id="29" depart="7.52" from="93631344" to="850757718" type="DEFAULT_VEHTYPE" fromTaz="T1_680_1" toTaz="T1_17_1" departLane="free" departSpeed="max"/>
  <trip id="3761" depart="7.52" from="861090333" to="530490479#0" type="DEFAULT_VEHTYPE" fromTaz="T1_880_1" toTaz="T1_280_1" departLane="free" departSpeed="max"/>
  <trip id="2853" depart="7.53" from="861090333" to="966059358" type="DEFAULT_VEHTYPE" fromTaz="T1_880_1" toTaz="T1_17_1" departLane="free" departSpeed="max"/>
  <trip id="1218" depart="7.53" from="93631240" to="343498596" type="DEFAULT_VEHTYPE" fromTaz="T1_680_1" toTaz="T1_280_1" departLane="free" departSpeed="max"/>
  <trip id="1219" depart="7.71" from="93631240" to="343498596" type="DEFAULT_VEHTYPE" fromTaz="T1_680_1" toTaz="T1_280_1" departLane="free" departSpeed="max"/>
  <trip id="3762" depart="7.75" from="861090333" to="530490479#0" type="DEFAULT_VEHTYPE" fromTaz="T1_880_1" toTaz="T1_280_1" departLane="free" departSpeed="max"/>
  <trip id="30" depart="7.77" from="93631344" to="850757718" type="DEFAULT_VEHTYPE" fromTaz="T1_680_1" toTaz="T1_17_1" departLane="free" departSpeed="max"/>
  <trip id="2854" depart="7.86" from="861090333" to="966059358" type="DEFAULT_VEHTYPE" fromTaz="T1_880_1" toTaz="T1_17_1" departLane="free" departSpeed="max"/>
  <trip id="1220" depart="7.89" from="93631240" to="343498596" type="DEFAULT_VEHTYPE" fromTaz="T1_680_1" toTaz="T1_280_1" departLane="free" departSpeed="max"/>
  <trip id="3763" depart="7.97" from="861090333" to="530490479#0" type="DEFAULT_VEHTYPE" fromTaz="T1_880_1" toTaz="T1_280_1" departLane="free" departSpeed="max"/>
  <trip id="31" depart="8.03" from="93631344" to="850757718" type="DEFAULT_VEHTYPE" fromTaz="T1_680_1" toTaz="T1_17_1" departLane="free" departSpeed="max"/>
  <trip id="1221" depart="8.07" from="93631240" to="343498596" type="DEFAULT_VEHTYPE" fromTaz="T1_680_1" toTaz="T1_280_1" departLane="free" departSpeed="max"/>
  <trip id="2855" depart="8.19" from="861090333" to="966059358" type="DEFAULT_VEHTYPE" fromTaz="T1_880_1" toTaz="T1_17_1" departLane="free" departSpeed="max"/>
  <trip id="3764" depart="8.20" from="861090333" to="530490479#0" type="DEFAULT_VEHTYPE" fromTaz="T1_880_1" toTaz="T1_280_1" departLane="free" departSpeed="max"/>
  <trip id="1222" depart="8.25" from="93631240" to="343498596" type="DEFAULT_VEHTYPE" fromTaz="T1_680_1" toTaz="T1_280_1" departLane="free" departSpeed="max"/>
  <trip id="32" depart="8.28" from="93631344" to="850757718" type="DEFAULT_VEHTYPE" fromTaz="T1_680_1" toTaz="T1_17_1" departLane="free" departSpeed="max"/>
  <trip id="3765" depart="8.42" from="861090333" to="530490479#0" type="DEFAULT_VEHTYPE" fromTaz="T1_880_1" toTaz="T1_280_1" departLane="free" departSpeed="max"/>
  <trip id="1223" depart="8.43" from="93631240" to="343498596" type="DEFAULT_VEHTYPE" fromTaz="T1_680_1" toTaz="T1_280_1" departLane="free" departSpeed="max"/>
  <trip id="2856" depart="8.53" from="861090333" to="966059358" type="DEFAULT_VEHTYPE" fromTaz="T1_880_1" toTaz="T1_17_1" departLane="free" departSpeed="max"/>
  <trip id="33" depart="8.54" from="93631344" to="850757718" type="DEFAULT_VEHTYPE" fromTaz="T1_680_1" toTaz="T1_17_1" departLane="free" departSpeed="max"/>
  <trip id="1224" depart="8.62" from="93631240" to="343498596" type="DEFAULT_VEHTYPE" fromTaz="T1_680_1" toTaz="T1_280_1" departLane="free" departSpeed="max"/>
  <trip id="3766" depart="8.65" from="861090333" to="530490479#0" type="DEFAULT_VEHTYPE" fromTaz="T1_880_1" toTaz="T1_280_1" departLane="free" departSpeed="max"/>
  <trip id="34" depart="8.79" from="93631344" to="850757718" type="DEFAULT_VEHTYPE" fromTaz="T1_680_1" toTaz="T1_17_1" departLane="free" departSpeed="max"/>
  <trip id="1225" depart="8.80" from="93631240" to="343498596" type="DEFAULT_VEHTYPE" fromTaz="T1_680_1" toTaz="T1_280_1" departLane="free" departSpeed="max"/>
  <trip id="2857" depart="8.86" from="861090333" to="966059358" type="DEFAULT_VEHTYPE" fromTaz="T1_880_1" toTaz="T1_17_1" departLane="free" departSpeed="max"/>
  <trip id="3767" depart="8.87" from="861090333" to="530490479#0" type="DEFAULT_VEHTYPE" fromTaz="T1_880_1" toTaz="T1_280_1" departLane="free" departSpeed="max"/>
  <trip id="1226" depart="8.98" from="93631240" to="343498596" type="DEFAULT_VEHTYPE" fromTaz="T1_680_1" toTaz="T1_280_1" departLane="free" departSpeed="max"/>
  <trip id="35" depart="9.05" from="93631344" to="850757718" type="DEFAULT_VEHTYPE" fromTaz="T1_680_1" toTaz="T1_17_1" departLane="free" departSpeed="max"/>
  <trip id="3768" depart="9.09" from="861090333" to="530490479#0" type="DEFAULT_VEHTYPE" fromTaz="T1_880_1" toTaz="T1_280_1" departLane="free" departSpeed="max"/>
  <trip id="1227" depart="9.16" from="93631240" to="343498596" type="DEFAULT_VEHTYPE" fromTaz="T1_680_1" toTaz="T1_280_1" departLane="free" departSpeed="max"/>
  <trip id="2858" depart="9.20" from="861090333" to="966059358" type="DEFAULT_VEHTYPE" fromTaz="T1_880_1" toTaz="T1_17_1" departLane="free" departSpeed="max"/>
  <trip id="36" depart="9.30" from="93631344" to="850757718" type="DEFAULT_VEHTYPE" fromTaz="T1_680_1" toTaz="T1_17_1" departLane="free" departSpeed="max"/>
  <trip id="3769" depart="9.32" from="861090333" to="530490479#0" type="DEFAULT_VEHTYPE" fromTaz="T1_880_1" toTaz="T1_280_1" departLane="free" departSpeed="max"/>
  <trip id="1228" depart="9.34" from="93631240" to="343498596" type="DEFAULT_VEHTYPE" fromTaz="T1_680_1" toTaz="T1_280_1" departLane="free" departSpeed="max"/>
  <trip id="1229" depart="9.52" from="93631240" to="343498596" type="DEFAULT_VEHTYPE" fromTaz="T1_680_1" toTaz="T1_280_1" departLane="free" departSpeed="max"/>
  <trip id="2859" depart="9.53" from="861090333" to="966059358" type="DEFAULT_VEHTYPE" fromTaz="T1_880_1" toTaz="T1_17_1" departLane="free" departSpeed="max"/>
  <trip id="3770" depart="9.54" from="861090333" to="530490479#0" type="DEFAULT_VEHTYPE" fromTaz="T1_880_1" toTaz="T1_280_1" departLane="free" departSpeed="max"/>
  <trip id="37" depart="9.56" from="93631344" to="850757718" type="DEFAULT_VEHTYPE" fromTaz="T1_680_1" toTaz="T1_17_1" departLane="free" departSpeed="max"/>
  <trip id="1230" depart="9.70" from="93631240" to="343498596" type="DEFAULT_VEHTYPE" fromTaz="T1_680_1" toTaz="T1_280_1" departLane="free" departSpeed="max"/>
  <trip id="3771" depart="9.77" from="861090333" to="530490479#0" type="DEFAULT_VEHTYPE" fromTaz="T1_880_1" toTaz="T1_280_1" departLane="free" departSpeed="max"/>
  <trip id="38" depart="9.81" from="93631344" to="850757718" type="DEFAULT_VEHTYPE" fromTaz="T1_680_1" toTaz="T1_17_1" departLane="free" departSpeed="max"/>
  <trip id="2860" depart="9.87" from="861090333" to="966059358" type="DEFAULT_VEHTYPE" fromTaz="T1_880_1" toTaz="T1_17_1" departLane="free" departSpeed="max"/>
  <trip id="1231" depart="9.89" from="93631240" to="343498596" type="DEFAULT_VEHTYPE" fromTaz="T1_680_1" toTaz="T1_280_1" departLane="free" departSpeed="max"/>
  <trip id="3772" depart="9.99" from="861090333" to="530490479#0" type="DEFAULT_VEHTYPE" fromTaz="T1_880_1" toTaz="T1_280_1" departLane="free" departSpeed="max"/>
  <trip id="1232" depart="10.07" from="93631240" to="343498596" type="DEFAULT_VEHTYPE" fromTaz="T1_680_1" toTaz="T1_280_1" departLane="free" departSpeed="max"/>
  <trip id="39" depart="10.07" from="93631344" to="850757718" type="DEFAULT_VEHTYPE" fromTaz="T1_680_1" toTaz="T1_17_1" departLane="free" departSpeed="max"/>
  <trip id="2861" depart="10.20" from="861090333" to="966059358" type="DEFAULT_VEHTYPE" fromTaz="T1_880_1" toTaz="T1_17_1" departLane="free" departSpeed="max"/>
  <trip id="3773" depart="10.22" from="861090333" to="530490479#0" type="DEFAULT_VEHTYPE" fromTaz="T1_880_1" toTaz="T1_280_1" departLane="free" departSpeed="max"/>
  <trip id="1233" depart="10.25" from="93631240" to="343498596" type="DEFAULT_VEHTYPE" fromTaz="T1_680_1" toTaz="T1_280_1" departLane="free" departSpeed="max"/>
  <trip id="40" depart="10.32" from="93631344" to="850757718" type="DEFAULT_VEHTYPE" fromTaz="T1_680_1" toTaz="T1_17_1" departLane="free" departSpeed="max"/>
  <trip id="1234" depart="10.43" from="93631240" to="343498596" type="DEFAULT_VEHTYPE" fromTaz="T1_680_1" toTaz="T1_280_1" departLane="free" departSpeed="max"/>
  <trip id="3774" depart="10.44" from="861090333" to="530490479#0" type="DEFAULT_VEHTYPE" fromTaz="T1_880_1" toTaz="T1_280_1" departLane="free" departSpeed="max"/>
  <trip id="2862" depart="10.54" from="861090333" to="966059358" type="DEFAULT_VEHTYPE" fromTaz="T1_880_1" toTaz="T1_17_1" departLane="free" departSpeed="max"/>
  <trip id="41" depart="10.58" from="93631344" to="850757718" type="DEFAULT_VEHTYPE" fromTaz="T1_680_1" toTaz="T1_17_1" departLane="free" departSpeed="max"/>
  <trip id="1235" depart="10.61" from="93631240" to="343498596" type="DEFAULT_VEHTYPE" fromTaz="T1_680_1" toTaz="T1_280_1" departLane="free" departSpeed="max"/>
  <trip id="3775" depart="10.67" from="861090333" to="530490479#0" type="DEFAULT_VEHTYPE" fromTaz="T1_880_1" toTaz="T1_280_1" departLane="free" departSpeed="max"/>
  <trip id="1236" depart="10.79" from="93631240" to="343498596" type="DEFAULT_VEHTYPE" fromTaz="T1_680_1" toTaz="T1_280_1" departLane="free" departSpeed="max"/>
  <trip id="42" depart="10.83" from="93631344" to="850757718" type="DEFAULT_VEHTYPE" fromTaz="T1_680_1" toTaz="T1_17_1" departLane="free" departSpeed="max"/>
  <trip id="2863" depart="10.87" from="861090333" to="966059358" type="DEFAULT_VEHTYPE" fromTaz="T1_880_1" toTaz="T1_17_1" departLane="free" departSpeed="max"/>
  <trip id="3776" depart="10.89" from="861090333" to="530490479#0" type="DEFAULT_VEHTYPE" fromTaz="T1_880_1" toTaz="T1_280_1" departLane="free" departSpeed="max"/>
  <trip id="1237" depart="10.97" from="93631240" to="343498596" type="DEFAULT_VEHTYPE" fromTaz="T1_680_1" toTaz="T1_280_1" departLane="free" departSpeed="max"/>
  <trip id="43" depart="11.09" from="93631344" to="850757718" type="DEFAULT_VEHTYPE" fromTaz="T1_680_1" toTaz="T1_17_1" departLane="free" departSpeed="max"/>