<?xml version='1.0' encoding='utf-8'?>
<routes>
  <trip id="2075" depart="0.08" from="861090333" to="530490479#0" type="DEFAULT_VEHTYPE" fromTaz="T1_880_1" toTaz="T1_280_1" departLane="free" departSpeed="max"/>
  <trip id="0" depart="0.12" from="93631344" to="850757718" type="DEFAULT_VEHTYPE" fromTaz="T1_680_1" toTaz="T1_17_1" departLane="free" departSpeed="max"/>
  <trip id="1206" depart="0.18" from="93631240" to="343498596" type="DEFAULT_VEHTYPE" fromTaz="T1_680_1" toTaz="T1_280_1" departLane="free" departSpeed="max"/>
  <trip id="2076" depart="0.25" from="861090333" to="530490479#0" type="DEFAULT_VEHTYPE" fromTaz="T1_880_1" toTaz="T1_280_1" departLane="free" departSpeed="max"/>
  <trip id="1" depart="0.37" from="93631344" to="850757718" type="DEFAULT_VEHTYPE" fromTaz="T1_680_1" toTaz="T1_17_1" departLane="free" departSpeed="max"/>
  <trip id="2077" depart="0.42" from="861090333" to="530490479#0" type="DEFAULT_VEHTYPE" fromTaz="T1_880_1" toTaz="T1_280_1" departLane="free" departSpeed="max"/>
  <trip id="1207" depart="0.54" from="93631240" to="343498596" type="DEFAULT_VEHTYPE" fromTaz="T1_680_1" toTaz="T1_280_1" departLane="free" departSpeed="max"/>
  <trip id="2078" depart="0.59" from="861090333" to="530490479#0" type="DEFAULT_VEHTYPE" fromTaz="T1_880_1" toTaz="T1_280_1" departLane="free" departSpeed="max"/>
  <trip id="2" depart="0.62" from="93631344" to="850757718" type="DEFAULT_VEHTYPE" fromTaz="T1_680_1" toTaz="T1_17_1" departLane="free" departSpeed="max"/>
  <trip id="2079" depart="0.76" from="861090333" to="530490479#0" type="DEFAULT_VEHTYPE" fromTaz="T1_880_1" toTaz="T1_280_1" departLane="free" departSpeed="max"/>
  <trip id="3" depart="0.87" from="93631344" to="850757718" type="DEFAULT_VEHTYPE" fromTaz="T1_680_1" toTaz="T1_17_1" departLane="free" departSpeed="max"/>
  <trip id="1208" depart="0.89" from="93631240" to="343498596" type="DEFAULT_VEHTYPE" fromTaz="T1_680_1" toTaz="T1_280_1" departLane="free" departSpeed="max"/>
  <trip id="2080" depart="0.93" from="861090333" to="530490479#0" type="DEFAULT_VEHTYPE" fromTaz="T1_880_1" toTaz="T1_280_1" departLane="free" departSpeed="max"/>
  <trip id="2081" depart="1.10" from="861090333" to="530490479#0" type="DEFAULT_VEHTYPE" fromTaz="T1_880_1" toTaz="T1_280_1" departLane="free" departSpeed="max"/>
  <trip id="4" depart="1.12" from="93631344" to="850757718" type="DEFAULT_VEHTYPE" fromTaz="T1_680_1" toTaz="T1_17_1" departLane="free" departSpeed="max"/>
  <trip id="1209" depart="1.25" from="93631240" to="343498596" type="DEFAULT_VEHTYPE" fromTaz="T1_680_1" toTaz="T1_280_1" departLane="free" departSpeed="max"/>
  <trip id="2082" depart="1.27" from="861090333" to="530490479#0" type="DEFAULT_VEHTYPE" fromTaz="T1_880_1" toTaz="T1_280_1" departLane="free" departSpeed="max"/>
  <trip id="5" depart="1.37" from="93631344" to="850757718" type="DEFAULT_VEHTYPE" fromTaz="T1_680_1" toTaz="T1_17_1" departLane="free" departSpeed="max"/>
  <trip id="2083" depart="1.44" from="861090333" to="530490479#0" type="DEFAULT_VEHTYPE" fromTaz="T1_880_1" toTaz="T1_280_1" departLane="free" departSpeed="max"/>
  <trip id="1210" depart="1.61" from="93631240" to="343498596" type="DEFAULT_VEHTYPE" fromTaz="T1_680_1" toTaz="T1_280_1" departLane="free" departSpeed="max"/>
  <trip id="2084" depart="1.61" from="861090333" to="530490479#0" type="DEFAULT_VEHTYPE" fromTaz="T1_880_1" toTaz="T1_280_1" departLane="free" departSpeed="max"/>
  <trip id="6" depart="1.62" from="93631344" to="850757718" type="DEFAULT_VEHTYPE" fromTaz="T1_680_1" toTaz="T1_17_1" departLane="free" departSpeed="max"/>
  <trip id="2085" depart="1.78" from="861090333" to="530490479#0" type="DEFAULT_VEHTYPE" fromTaz="T1_880_1" toTaz="T1_280_1" departLane="free" departSpeed="max"/>
  <trip id="7" depart="1.87" from="93631344" to="850757718" type="DEFAULT_VEHTYPE" fromTaz="T1_680_1" toTaz="T1_17_1" departLane="free" departSpeed="max"/>
  <trip id="2086" depart="1.95" from="861090333" to="530490479#0" type="DEFAULT_VEHTYPE" fromTaz="T1_880_1" toTaz="T1_280_1" departLane="free" departSpeed="max"/>
  <trip id="1211" depart="1.96" from="93631240" to="343498596" type="DEFAULT_VEHTYPE" fromTaz="T1_680_1" toTaz="T1_280_1" departLane="free" departSpeed="max"/>
  <trip id="8" depart="2.11" from="93631344" to="850757718" type="DEFAULT_VEHTYPE" fromTaz="T1_680_1" toTaz="T1_17_1" departLane="free" departSpeed="max"/>
  <trip id="2087" depart="2.12" from="861090333" to="530490479#0" type="DEFAULT_VEHTYPE" fromTaz="T1_880_1" toTaz="T1_280_1" departLane="free" departSpeed="max"/>
  <trip id="2088" depart="2.29" from="861090333" to="530490479#0" type="DEFAULT_VEHTYPE" fromTaz="T1_880_1" toTaz="T1_280_1" departLane="free" departSpeed="max"/>
  <trip id="1212" depart="2.32" from="93631240" to="343498596" type="DEFAULT_VEHTYPE" fromTaz="T1_680_1" toTaz="T1_280_1" departLane="free" departSpeed="max"/>
  <trip id="9" depart="2.36" from="93631344" to="850757718" type="DEFAULT_VEHTYPE" fromTaz="T1_680_1" toTaz="T1_17_1" departLane="free" departSpeed="max"/>
  <trip id="2089" depart="2.46" from="861090333" to="530490479#0" type="DEFAULT_VEHTYPE" fromTaz="T1_880_1" toTaz="T1_280_1" departLane="free" departSpeed="max"/>
  <trip id="10" depart="2.61" from="93631344" to="850757718" type="DEFAULT_VEHTYPE" fromTaz="T1_680_1" toTaz="T1_17_1" departLane="free" departSpeed="max"/>
  <trip id="2090" depart="2.63" from="861090333" to="530490479#0" type="DEFAULT_VEHTYPE" fromTaz="T1_880_1" toTaz="T1_280_1" departLane="free" departSpeed="max"/>
  <trip id="1213" depart="2.68" from="93631240" to="343498596" type="DEFAULT_VEHTYPE" fromTaz="T1_680_1" toTaz="T1_280_1" departLane="free" departSpeed="max"/>
  <trip id="2091" depart="2.80" from="861090333" to="530490479#0" type="DEFAULT_VEHTYPE" fromTaz="T1_880_1" toTaz="T1_280_1" departLane="free" departSpeed="max"/>
  <trip id="11" depart="2.86" from="93631344" to="850757718" type="DEFAULT_VEHTYPE" fromTaz="T1_680_1" toTaz="T1_17_1" departLane="free" departSpeed="max"/>
  <trip id="2092" depart="2.97" from="861090333" to="530490479#0" type="DEFAULT_VEHTYPE" fromTaz="T1_880_1" toTaz="T1_280_1" departLane="free" departSpeed="max"/>
  <trip id="1214" depart="3.03" from="93631240" to="343498596" type="DEFAULT_VEHTYPE" fromTaz="T1_680_1" toTaz="T1_280_1" departLane="free" departSpeed="max"/>
  <trip id="12" depart="3.11" from="93631344" to="850757718" type="DEFAULT_VEHTYPE" fromTaz="T1_680_1" toTaz="T1_17_1" departLane="free" departSpeed="max"/>
  <trip id="2093" depart="3.14" from="861090333" to="530490479#0" type="DEFAULT_VEHTYPE" fromTaz="T1_880_1" toTaz="T1_280_1" departLane="free" departSpeed="max"/>
  <trip id="2094" depart="3.31" from="861090333" to="530490479#0" type="DEFAULT_VEHTYPE" fromTaz="T1_880_1" toTaz="T1_280_1" departLane="free" departSpeed="max"/>
  <trip id="13" depart="3.36" from="93631344" to="850757718" type="DEFAULT_VEHTYPE" fromTaz="T1_680_1" toTaz="T1_17_1" departLane="free" departSpeed="max"/>
  <trip id="1215" depart="3.39" from="93631240" to="343498596" type="DEFAULT_VEHTYPE" fromTaz="T1_680_1" toTaz="T1_280_1" departLane="free" departSpeed="max"/>
  <trip id="2095" depart="3.48" from="861090333" to="530490479#0" type="DEFAULT_VEHTYPE" fromTaz="T1_880_1" toTaz="T1_280_1" departLane="free" departSpeed="max"/>
  <trip id="14" depart="3.61" from="93631344" to="850757718" type="DEFAULT_VEHTYPE" fromTaz="T1_680_1" toTaz="T1_17_1" departLane="free" departSpeed="max"/>
  <trip id="2096" depart="3.65" from="861090333" to="530490479#0" type="DEFAULT_VEHTYPE" fromTaz="T1_880_1" toTaz="T1_280_1" departLane="free" departSpeed="max"/>
  <trip id="1216" depart="3.75" from="93631240" to="343498596" type="DEFAULT_VEHTYPE" fromTaz="T1_680_1" toTaz="T1_280_1" departLane="free" departSpeed="max"/>
  <trip id="2097" depart="3.82" from="861090333" to="530490479#0" type="DEFAULT_VEHTYPE" fromTaz="T1_880_1" toTaz="T1_280_1" departLane="free" departSpeed="max"/>
  <trip id="15" depart="3.86" from="93631344" to="850757718" type="DEFAULT_VEHTYPE" fromTaz="T1_680_1" toTaz="T1_17_1" departLane="free" departSpeed="max"/>
  <trip id="2098" depart="3.99" from="861090333" to="530490479#0" type="DEFAULT_VEHTYPE" fromTaz="T1_880_1" toTaz="T1_280_1" departLane="free" departSpeed="max"/>
  <trip id="1217" depart="4.10" from="93631240" to="343498596" type="DEFAULT_VEHTYPE" fromTaz="T1_680_1" toTaz="T1_280_1" departLane="free" departSpeed="max"/>
  <trip id="16" depart="4.10" from="93631344" to="850757718" type="DEFAULT_VEHTYPE" fromTaz="T1_680_1" toTaz="T1_17_1" departLane="free" departSpeed="max"/>
  <trip id="2099" depart="4.16" from="861090333" to="530490479#0" type="DEFAULT_VEHTYPE" fromTaz="T1_880_1" toTaz="T1_280_1" departLane="free" departSpeed="max"/>
  <trip id="2100" depart="4.33" from="861090333" to="530490479#0" type="DEFAULT_VEHTYPE" fromTaz="T1_880_1" toTaz="T1_280_1" departLane="free" departSpeed="max"/>
  <trip id="17" depart="4.35" from="93631344" to="850757718" type="DEFAULT_VEHTYPE" fromTaz="T1_680_1" toTaz="T1_17_1" departLane="free" departSpeed="max"/>
  <trip id="1218" depart="4.46" from="93631240" to="343498596" type="DEFAULT_VEHTYPE" fromTaz="T1_680_1" toTaz="T1_280_1" departLane="free" departSpeed="max"/>
  <trip id="2101" depart="4.50" from="861090333" to="530490479#0" type="DEFAULT_VEHTYPE" fromTaz="T1_880_1" toTaz="T1_280_1" departLane="free" departSpeed="max"/>
  <trip id="18" depart="4.60" from="93631344" to="850757718" type="DEFAULT_VEHTYPE" fromTaz="T1_680_1" toTaz="T1_17_1" departLane="free" departSpeed="max"/>
  <trip id="2102" depart="4.67" from="861090333" to="530490479#0" type="DEFAULT_VEHTYPE" fromTaz="T1_880_1" toTaz="T1_280_1" departLane="free" departSpeed="max"/>
  <trip id="1219" depart="4.82" from="93631240" to="343498596" type="DEFAULT_VEHTYPE" fromTaz="T1_680_1" toTaz="T1_280_1" departLane="free" departSpeed="max"/>
  <trip id="2103" depart="4.84" from="861090333" to="530490479#0" type="DEFAULT_VEHTYPE" fromTaz="T1_880_1" toTaz="T1_280_1" departLane="free" departSpeed="max"/>
  <trip id="19" depart="4.85" from="93631344" to="850757718" type="DEFAULT_VEHTYPE" fromTaz="T1_680_1" toTaz="T1_17_1" departLane="free" departSpeed="max"/>
  <trip id="2104" depart="5.01" from="861090333" to="530490479#0" type="DEFAULT_VEHTYPE" fromTaz="T1_880_1" toTaz="T1_280_1" departLane="free" departSpeed="max"/>
  <trip id="20" depart="5.10" from="93631344" to="850757718" type="DEFAULT_VEHTYPE" fromTaz="T1_680_1" toTaz="T1_17_1" departLane="free" departSpeed="max"/>
  <trip id="1220" depart="5.17" from="93631240" to="343498596" type="DEFAULT_VEHTYPE" fromTaz="T1_680_1" toTaz="T1_280_1" departLane="free" departSpeed="max"/>
  <trip id="2105" depart="5.18" from="861090333" to="530490479#0" type="DEFAULT_VEHTYPE" fromTaz="T1_880_1" toTaz="T1_280_1" departLane="free" departSpeed="max"/>
  <trip id="21" depart="5.35" from="93631344" to="850757718" type="DEFAULT_VEHTYPE" fromTaz="T1_680_1" toTaz="T1_17_1" departLane="free" departSpeed="max"/>
  <trip id="2106" depart="5.35" from="861090333" to="530490479#0" type="DEFAULT_VEHTYPE" fromTaz="T1_880_1" toTaz="T1_280_1" departLane="free" departSpeed="max"/>
  <trip id="2047" depart="5.36" from="861090333" to="966059358" type="DEFAULT_VEHTYPE" fromTaz="T1_880_1" toTaz="T1_17_1" departLane="free" departSpeed="max"/>
  <trip id="2107" depart="5.52" from="861090333" to="530490479#0" type="DEFAULT_VEHTYPE" fromTaz="T1_880_1" toTaz="T1_280_1" departLane="free" departSpeed="max"/>
  <trip id="1221" depart="5.53" from="93631240" to="343498596" type="DEFAULT_VEHTYPE" fromTaz="T1_680_1" toTaz="T1_280_1" departLane="free" departSpeed="max"/>
  <trip id="22" depart="5.60" from="93631344" to="850757718" type="DEFAULT_VEHTYPE" fromTaz="T1_680_1" toTaz="T1_17_1" departLane="free" departSpeed="max"/>
  <trip id="2108" depart="5.69" from="861090333" to="530490479#0" type="DEFAULT_VEHTYPE" fromTaz="T1_880_1" toTaz="T1_280_1" departLane="free" departSpeed="max"/>
  <trip id="23" depart="5.85" from="93631344" to="850757718" type="DEFAULT_VEHTYPE" fromTaz="T1_680_1" toTaz="T1_17_1" departLane="free" departSpeed="max"/>
  <trip id="2109" depart="5.86" from="861090333" to="530490479#0" type="DEFAULT_VEHTYPE" fromTaz="T1_880_1" toTaz="T1_280_1" departLane="free" departSpeed="max"/>
  <trip id="1222" depart="5.89" from="93631240" to="343498596" type="DEFAULT_VEHTYPE" fromTaz="T1_680_1" toTaz="T1_280_1" departLane="free" departSpeed="max"/>
  <trip id="2110" depart="6.03" from="861090333" to="530490479#0" type="DEFAULT_VEHTYPE" fromTaz="T1_880_1" toTaz="T1_280_1" departLane="free" departSpeed="max"/>
  <trip id="24" depart="6.09" from="93631344" to="850757718" type="DEFAULT_VEHTYPE" fromTaz="T1_680_1" toTaz="T1_17_1" departLane="free" departSpeed="max"/>
  <trip id="2111" depart="6.20" from="861090333" to="530490479#0" type="DEFAULT_VEHTYPE" fromTaz="T1_880_1" toTaz="T1_280_1" departLane="free" departSpeed="max"/>
  <trip id="1223" depart="6.24" from="93631240" to="343498596" type="DEFAULT_VEHTYPE" fromTaz="T1_680_1" toTaz="T1_280_1" departLane="free" departSpeed="max"/>
  <trip id="25" depart="6.34" from="93631344" to="850757718" type="DEFAULT_VEHTYPE" fromTaz="T1_680_1" toTaz="T1_17_1" departLane="free" departSpeed="max"/>
  <trip id="2112" depart="6.37" from="861090333" to="530490479#0" type="DEFAULT_VEHTYPE" fromTaz="T1_880_1" toTaz="T1_280_1" departLane="free" departSpeed="max"/>
  <trip id="2113" depart="6.54" from="861090333" to="530490479#0" type="DEFAULT_VEHTYPE" fromTaz="T1_880_1" toTaz="T1_280_1" departLane="free" departSpeed="max"/>
  <trip id="26" depart="6.59" from="93631344" to="850757718" type="DEFAULT_VEHTYPE" fromTaz="T1_680_1" toTaz="T1_17_1" departLane="free" departSpeed="max"/>
  <trip id="1224" depart="6.60" from="93631240" to="343498596" type="DEFAULT_VEHTYPE" fromTaz="T1_680_1" toTaz="T1_280_1" departLane="free" departSpeed="max"/>
  <trip id="2114" depart="6.71" from="861090333" to="530490479#0" type="DEFAULT_VEHTYPE" fromTaz="T1_880_1" toTaz="T1_280_1" departLane="free" departSpeed="max"/>
  <trip id="27" depart="6.84" from="93631344" to="850757718" type="DEFAULT_VEHTYPE" fromTaz="T1_680_1" toTaz="T1_17_1" departLane="free" departSpeed="max"/>
  <trip id="2115" depart="6.88" from="861090333" to="530490479#0" type="DEFAULT_VEHTYPE" fromTaz="T1_880_1" toTaz="T1_280_1" departLane="free" departSpeed="max"/>
  <trip id="1225" depart="6.96" from="93631240" to="343498596" type="DEFAULT_VEHTYPE" fromTaz="T1_680_1" toTaz="T1_280_1" departLane="free" departSpeed="max"/>
  <trip id="2116" depart="7.05" from="861090333" to="530490479#0" type="DEFAULT_VEHTYPE" fromTaz="T1_880_1" toTaz="T1_280_1" departLane="free" departSpeed="max"/>
  <trip id="28" depart="7.09" from="93631344" to="850757718" type="DEFAULT_VEHTYPE" fromTaz="T1_680_1" toTaz="T1_17_1" departLane="free" departSpeed="max"/>
  <trip id="2117" depart="7.22" from="861090333" to="530490479#0" type="DEFAULT_VEHTYPE" fromTaz="T1_880_1" toTaz="T1_280_1" departLane="free" departSpeed="max"/>
  <trip id="1226" depart="7.31" from="93631240" to="343498596" type="DEFAULT_VEHTYPE" fromTaz="T1_680_1" toTaz="T1_280_1" departLane="free" departSpeed="max"/>
  <trip id="29" depart="7.34" from="93631344" to="850757718" type="DEFAULT_VEHTYPE" fromTaz="T1_680_1" toTaz="T1_17_1" departLane="free" departSpeed="max"/>
  <trip id="2118" depart="7.39" from="861090333" to="530490479#0" type="DEFAULT_VEHTYPE" fromTaz="T1_880_1" toTaz="T1_280_1" departLane="free" departSpeed="max"/>
  <trip id="2119" depart="7.56" from="861090333" to="530490479#0" type="DEFAULT_VEHTYPE" fromTaz="T1_880_1" toTaz="T1_280_1" departLane="free" departSpeed="max"/>
  <trip id="30" depart="7.59" from="93631344" to="850757718" type="DEFAULT_VEHTYPE" fromTaz="T1_680_1" toTaz="T1_17_1" departLane="free" departSpeed="max"/>
  <trip id="1227" depart="7.67" from="93631240" to="343498596" type="DEFAULT_VEHTYPE" fromTaz="T1_680_1" toTaz="T1_280_1" departLane="free" departSpeed="max"/>
  <trip id="2120" depart="7.72" from="861090333" to="530490479#0" type="DEFAULT_VEHTYPE" fromTaz="T1_880_1" toTaz="T1_280_1" departLane="free" departSpeed="max"/>
  <trip id="31" depart="7.84" from="93631344" to="850757718" type="DEFAULT_VEHTYPE" fromTaz="T1_680_1" toTaz="T1_17_1" departLane="free" departSpeed="max"/>
  <trip id="2121" depart="7.89" from="861090333" to="530490479#0" type="DEFAULT_VEHTYPE" fromTaz="T1_880_1" toTaz="T1_280_1" departLane="free" departSpeed="max"/>
  <trip id="1228" depart="8.03" from="93631240" to="343498596" type="DEFAULT_VEHTYPE" fromTaz="T1_680_1" toTaz="T1_280_1" departLane="free" departSpeed="max"/>
  <trip id="2122" depart="8.06" from="861090333" to="530490479#0" type="DEFAULT_VEHTYPE" fromTaz="T1_880_1" toTaz="T1_280_1" departLane="free" departSpeed="max"/>
  <trip id="32" depart="8.08" from="93631344" to="850757718" type="DEFAULT_VEHTYPE" fromTaz="T1_680_1" toTaz="T1_17_1" departLane="free" departSpeed="max"/>
  <trip id="2123" depart="8.23" from="861090333" to="530490479#0" type="DEFAULT_VEHTYPE" fromTaz="T1_880_1" toTaz="T1_280_1" departLane="free" departSpeed="max"/>
  <trip id="33" depart="8.33" from="93631344" to="850757718" type="DEFAULT_VEHTYPE" fromTaz="T1_680_1" toTaz="T1_17_1" departLane="free" departSpeed="max"/>
  <trip id="1229" depart="8.38" from="93631240" to="343498596" type="DEFAULT_VEHTYPE" fromTaz="T1_680_1" toTaz="T1_280_1" departLane="free" departSpeed="max"/>
  <trip id="2124" depart="8.40" from="861090333" to="530490479#0" type="DEFAULT_VEHTYPE" fromTaz="T1_880_1" toTaz="T1_280_1" departLane="free" departSpeed="max"/>
  <trip id="2125" depart="8.57" from="861090333" to="530490479#0" type="DEFAULT_VEHTYPE" fromTaz="T1_880_1" toTaz="T1_280_1" departLane="free" departSpeed="max"/>
  <trip id="34" depart="8.58" from="93631344" to="850757718" type="DEFAULT_VEHTYPE" fromTaz="T1_680_1" toTaz="T1_17_1" departLane="free" departSpeed="max"/>
  <trip id="1230" depart="8.74" from="93631240" to="343498596" type="DEFAULT_VEHTYPE" fromTaz="T1_680_1" toTaz="T1_280_1" departLane="free" departSpeed="max"/>
  <trip id="2126" depart="8.74" from="861090333" to="530490479#0" type="DEFAULT_VEHTYPE" fromTaz="T1_880_1" toTaz="T1_280_1" departLane="free" departSpeed="max"/>
  <trip id="35" depart="8.83" from="93631344" to="850757718" type="DEFAULT_VEHTYPE" fromTaz="T1_680_1" toTaz="T1_17_1" departLane="free" departSpeed="max"/>
  <trip id="2127" depart="8.91" from="861090333" to="530490479#0" type="DEFAULT_VEHTYPE" fromTaz="T1_880_1" toTaz="T1_280_1" departLane="free" departSpeed="max"/>
  <trip id="36" depart="9.08" from="93631344" to="850757718" type="DEFAULT_VEHTYPE" fromTaz="T1_680_1" toTaz="T1_17_1" departLane="free" departSpeed="max"/>
  <trip id="2128" depart="9.08" from="861090333" to="530490479#0" type="DEFAULT_VEHTYPE" fromTaz="T1_880_1" toTaz="T1_280_1" departLane="free" departSpeed="max"/>
  <trip id="1231" depart="9.10" from="93631240" to="343498596" type="DEFAULT_VEHTYPE" fromTaz="T1_680_1" toTaz="T1_280_1" departLane="free" departSpeed="max"/>
  <trip id="2129" depart="9.25" from="861090333" to="530490479#0" type="DEFAULT_VEHTYPE" fromTaz="T1_880_1" toTaz="T1_280_1" departLane="free" departSpeed="max"/>
  <trip id="37" depart="9.33" from="93631344" to="850757718" type="DEFAULT_VEHTYPE" fromTaz="T1_680_1" toTaz="T1_17_1" departLane="free" departSpeed="max"/>
  <trip id="2130" depart="9.42" from="861090333" to="530490479#0" type="DEFAULT_VEHTYPE" fromTaz="T1_880_1" toTaz="T1_280_1" departLane="free" departSpeed="max"/>
  <trip id="1232" depart="9.45" from="93631240" to="343498596" type="DEFAULT_VEHTYPE" fromTaz="T1_680_1" toTaz="T1_280_1" departLane="free" departSpeed="max"/>
  <trip id="38" depart="9.58" from="93631344" to="850757718" type="DEFAULT_VEHTYPE" fromTaz="T1_680_1" toTaz="T1_17_1" departLane="free" departSpeed="max"/>
  <trip id="2131" depart="9.59" from="861090333" to="530490479#0" type="DEFAULT_VEHTYPE" fromTaz="T1_880_1" toTaz="T1_280_1" departLane="free" departSpeed="max"/>
  <trip id="2132" depart="9.76" from="861090333" to="530490479#0" type="DEFAULT_VEHTYPE" fromTaz="T1_880_1" toTaz="T1_280_1" departLane="free" departSpeed="max"/>
  <trip id="1233" depart="9.81" from="93631240" to="343498596" type="DEFAULT_VEHTYPE" fromTaz="T1_680_1" toTaz="T1_280_1" departLane="free" departSpeed="max"/>
  <trip id="39" depart="9.83" from="93631344" to="850757718" type="DEFAULT_VEHTYPE" fromTaz="T1_680_1" toTaz="T1_17_1" departLane="free" departSpeed="max"/>
  <trip id="2133" depart="9.93" from="861090333" to="530490479#0" type="DEFAULT_VEHTYPE" fromTaz="T1_880_1" toTaz="T1_280_1" departLane="free" departSpeed="max"/>
  <trip id="40" depart="10.07" from="93631344" to="850757718" type="DEFAULT_VEHTYPE" fromTaz="T1_680_1" toTaz="T1_17_1" departLane="free" departSpeed="max"/>
  <trip id="2134" depart="10.10" from="861090333" to="530490479#0" type="DEFAULT_VEHTYPE" fromTaz="T1_880_1" toTaz="T1_280_1" departLane="free" departSpeed="max"/>
  <trip id="1234" depart="10.17" from="93631240" to="343498596" type="DEFAULT_VEHTYPE" fromTaz="T1_680_1" toTaz="T1_280_1" departLane="free" departSpeed="max"/>
  <trip id="2135" depart="10.27" from="861090333" to="530490479#0" type="DEFAULT_VEHTYPE" fromTaz="T1_880_1" toTaz="T1_280_1" departLane="free" departSpeed="max"/>
  <trip id="41" depart="10.32" from="93631344" to="850757718" type="DEFAULT_VEHTYPE" fromTaz="T1_680_1" toTaz="T1_17_1" departLane="free" departSpeed="max"/>
  <trip id="2136" depart="10.44" from="861090333" to="530490479#0" type="DEFAULT_VEHTYPE" fromTaz="T1_880_1" toTaz="T1_280_1" departLane="free" departSpeed="max"/>
  <trip id="1235" depart="10.52" from="93631240" to="343498596" type="DEFAULT_VEHTYPE" fromTaz="T1_680_1" toTaz="T1_280_1" departLane="free" departSpeed="max"/>
  <trip id="42" depart="10.57" from="93631344" to="850757718" type="DEFAULT_VEHTYPE" fromTaz="T1_680_1" toTaz="T1_17_1" departLane="free" departSpeed="max"/>
  <trip id="2137" depart="10.61" from="861090333" to="530490479#0" type="DEFAULT_VEHTYPE" fromTaz="T1_880_1" toTaz="T1_280_1" departLane="free" departSpeed="max"/>
  <trip id="2138" depart="10.78" from="861090333" to="530490479#0" type="DEFAULT_VEHTYPE" fromTaz="T1_880_1" toTaz="T1_280_1" departLane="free" departSpeed="max"/>
  <trip id="43" depart="10.82" from="93631344" to="850757718" type="DEFAULT_VEHTYPE" fromTaz="T1_680_1" toTaz="T1_17_1" departLane="free" departSpeed="max"/>
  <trip id="1236" depart="10.88" from="93631240" to="343498596" type="DEFAULT_VEHTYPE" fromTaz="T1_680_1" toTaz="T1_280_1" departLane="free" departSpeed="max"/>
  <trip id="2139" depart="10.95" from="861090333" to="530490479#0" type="DEFAULT_VEHTYPE" fromTaz="T1_880_1" toTaz="T1_280_1" departLane="free" departSpeed="max"/>
  <trip id="44" depart="11.07" from="93631344" to="850757718" type="DEFAULT_VEHTYPE" fromTaz="T1_680_1" toTaz="T1_17_1" departLane="free" departSpeed="max"/>
  <trip id="2140" depart="11.12" from="861090333" to="530490479#0" type="DEFAULT_VEHTYPE" fromTaz="T1_880_1" toTaz="T1_280_1" departLane="free" departSpeed="max"/>
  <trip id="1237" depart="11.24" from="93631240" to="343498596" type="DEFAULT_VEHTYPE" fromTaz="T1_680_1" toTaz="T1_280_1" departLane="free" departSpeed="max"/>
  <trip id="2141" depart="11.29" from="861090333" to="530490479#0" type="DEFAULT_VEHTYPE" fromTaz="T1_880_1" toTaz="T1_280_1" departLane="free" departSpeed="max"/>
  <trip id="45" depart="11.32" from="93631344" to="850757718" type="DEFAULT_VEHTYPE" fromTaz="T1_680_1" toTaz="T1_17_1" departLane="free" departSpeed="max"/>
  <trip id="2142" depart="11.46" from="861090333" to="530490479#0" type="DEFAULT_VEHTYPE" fromTaz="T1_880_1" toTaz="T1_280_1" departLane="free" departSpeed="max"/>
  <trip id="46" depart="11.57" from="93631344" to="850757718" type="DEFAULT_VEHTYPE" fromTaz="T1_680_1" toTaz="T1_17_1" departLane="free" departSpeed="max"/>
  <trip id="1238" depart="11.59" from="93631240" to="343498596" type="DEFAULT_VEHTYPE" fromTaz="T1_680_1" toTaz="T1_280_1" departLane="free" departSpeed="max"/>
  <trip id="2143" depart="11.63" from="861090333" to="530490479#0" type="DEFAULT_VEHTYPE" fromTaz="T1_880_1" toTaz="T1_280_1" departLane="free" departSpeed="max"/>
  <trip id="2144" depart="11.80" from="861090333" to="530490479#0" type="DEFAULT_VEHTYPE" fromTaz="T1_880_1" toTaz="T1_280_1" departLane="free" departSpeed="max"/>
  <trip id="47" depart="11.82" from="93631344" to="850757718" type="DEFAULT_VEHTYPE" fromTaz="T1_680_1" toTaz="T1_17_1" departLane="free" departSpeed="max"/>
  <trip id="1239" depart="11.95" from="93631240" to="343498596" type="DEFAULT_VEHTYPE" fromTaz="T1_680_1" toTaz="T1_280_1" departLane="free" departSpeed="max"/>
  <trip id="2145" depart="11.97" from="861090333" to="530490479#0" type="DEFAULT_VEHTYPE" fromTaz="T1_880_1" toTaz="T1_280_1" departLane="free" departSpeed="max"/>
  <trip id="48" depart="12.06" from="93631344" to="850757718" type="DEFAULT_VEHTYPE" fromTaz="T1_680_1" toTaz="T1_17_1" departLane="free" departSpeed="max"/>
  <trip id="2146" depart="12.14" from="861090333" to="530490479#0" type="DEFAULT_VEHTYPE" fromTaz="T1_880_1" toTaz="T1_280_1" departLane="free" departSpeed="max"/>
  <trip id="1240" depart="12.31" from="93631240" to="343498596" type="DEFAULT_VEHTYPE" fromTaz="T1_680_1" toTaz="T1_280_1" departLane="free" departSpeed="max"/>
  <trip id="49" depart="12.31" from="93631344" to="850757718" type="DEFAULT_VEHTYPE" fromTaz="T1_680_1" toTaz="T1_17_1" departLane="free" departSpeed="max"/>
  <trip id="2147" depart="12.31" from="861090333" to="530490479#0" type="DEFAULT_VEHTYPE" fromTaz="T1_880_1" toTaz="T1_280_1" departLane="free" departSpeed="max"/>
  <trip id="2148" depart="12.48" from="861090333" to="530490479#0" type="DEFAULT_VEHTYPE" fromTaz="T1_880_1" toTaz="T1_280_1" departLane="free" departSpeed="max"/>
  <trip id="50" depart="12.56" from="93631344" to="850757718" type="DEFAULT_VEHTYPE" fromTaz="T1_680_1" toTaz="T1_17_1" departLane="free" departSpeed="max"/>
  <trip id="2149" depart="12.65" from="861090333" to="530490479#0" type="DEFAULT_VEHTYPE" fromTaz="T1_880_1" toTaz="T1_280_1" departLane="free" departSpeed="max"/>
  <trip id="1241" depart="12.66" from="93631240" to="343498596" type="DEFAULT_VEHTYPE" fromTaz="T1_680_1" toTaz="T1_280_1" departLane="free" departSpeed="max"/>
  <trip id="51" depart="12.81" from="93631344" to="850757718" type="DEFAULT_VEHTYPE" fromTaz="T1_680_1" toTaz="T1_17_1" departLane="free" departSpeed="max"/>
  <trip id="2150" depart="12.82" from="861090333" to="530490479#0" type="DEFAULT_VEHTYPE" fromTaz="T1_880_1" toTaz="T1_280_1" departLane="free" departSpeed="max"/>
  <trip id="2151" depart="12.99" from="861090333" to="530490479#0" type="DEFAULT_VEHTYPE" fromTaz="T1_880_1" toTaz="T1_280_1" departLane="free" departSpeed="max"/>
  <trip id="1242" depart="13.02" from="93631240" to="343498596" type="DEFAULT_VEHTYPE" fromTaz="T1_680_1" toTaz="T1_280_1" departLane="free" departSpeed="max"/>
  <trip id="52" depart="13.06" from="93631344" to="850757718" type="DEFAULT_VEHTYPE" fromTaz="T1_680_1" toTaz="T1_17_1" departLane="free" departSpeed="max"/>
  <trip id="2152" depart="13.16" from="861090333" to="530490479#0" type="DEFAULT_VEHTYPE" fromTaz="T1_880_1" toTaz="T1_280_1" departLane="free" departSpeed="max"/>
  <trip id="53" depart="13.31" from="93631344" to="850757718" type="DEFAULT_VEHTYPE" fromTaz="T1_680_1" toTaz="T1_17_1" departLane="free" departSpeed="max"/>
  <trip id="2153" depart="13.33" from="861090333" to="530490479#0" type="DEFAULT_VEHTYPE" fromTaz="T1_880_1" toTaz="T1_280_1" departLane="free" departSpeed="max"/>
  <trip id="1243" depart="13.38" from="93631240" to="343498596" type="DEFAULT_VEHTYPE" fromTaz="T1_680_1" toTaz="T1_280_1" departLane="free" departSpeed="max"/>
  <trip id="2154" depart="13.50" from="861090333" to="530490479#0" type="DEFAULT_VEHTYPE" fromTaz="T1_880_1" toTaz="T1_280_1" departLane="free" departSpeed="max"/>
  <trip id="54" depart="13.56" from="93631344" to="850757718" type="DEFAULT_VEHTYPE" fromTaz="T1_680_1" toTaz="T1_17_1" departLane="free" departSpeed="max"/>
  <trip id="2155" depart="13.67" from="861090333" to="530490479#0" type="DEFAULT_VEHTYPE" fromTaz="T1_880_1" toTaz="T1_280_1" departLane="free" departSpeed="max"/>
  <trip id="1244" depart="13.73" from="93631240" to="343498596" type="DEFAULT_VEHTYPE" fromTaz="T1_680_1" toTaz="T1_280_1" departLane="free" departSpeed="max"/>
  <trip id="55" depart="13.81" from="93631344" to="850757718" type="DEFAULT_VEHTYPE" fromTaz="T1_680_1" toTaz="T1_17_1" departLane="free" departSpeed="max"/>
  <trip id="2156" depart="13.84" from="861090333" to="530490479#0" type="DEFAULT_VEHTYPE" fromTaz="T1_880_1" toTaz="T1_280_1" departLane="free" departSpeed="max"/>
  <trip id="2157" depart="14.01" from="861090333" to="530490479#0" type="DEFAULT_VEHTYPE" fromTaz="T1_880_1" toTaz="T1_280_1" departLane="free" departSpeed="max"/>
  <trip id="56" depart="14.05" from="93631344" to="850757718" type="DEFAULT_VEHTYPE" fromTaz="T1_680_1" toTaz="T1_17_1" departLane="free" departSpeed="max"/>
  <trip id="1245" depart="14.09" from="93631240" to="343498596" type="DEFAULT_VEHTYPE" fromTaz="T1_680_1" toTaz="T1_280_1" departLane="free" departSpeed="max"/>
  <trip id="2158" depart="14.18" from="861090333" to="530490479#0" type="DEFAULT_VEHTYPE" fromTaz="T1_880_1" toTaz="T1_280_1" departLane="free" departSpeed="max"/>
  <trip id="57" depart="14.30" from="93631344" to="850757718" type="DEFAULT_VEHTYPE" fromTaz="T1_680_1" toTaz="T1_17_1" departLane="free" departSpeed="max"/>
  <trip id="2159" depart="14.35" from="861090333" to="530490479#0" type="DEFAULT_VEHTYPE" fromTaz="T1_880_1" toTaz="T1_280_1" departLane="free" departSpeed="max"/>
  <trip id="1246" depart="14.45" from="93631240" to="343498596" type="DEFAULT_VEHTYPE" fromTaz="T1_680_1" toTaz="T1_280_1" departLane="free" departSpeed="max"/>
  <trip id="2160" depart="14.52" from="861090333" to="530490479#0" type="DEFAULT_VEHTYPE" fromTaz="T1_880_1" toTaz="T1_280_1" departLane="free" departSpeed="max"/>