
<configuration>
<input>
<net-file value="net.xml"/>
<route-files value="route.rou.xml"/>
<additional-files value="additional.add.xml"/>
</input>
<time>
<begin value="0"/>
<end value="3600"/>
</time>
</configuration>