<?xml version='1.0' encoding='utf-8'?>
<routes>
  <trip id="0" depart="0.08" from="93631344" to="850757718" type="DEFAULT_VEHTYPE" fromTaz="T1_680_1" toTaz="T1_17_1" departLane="free" departSpeed="max"/>
  <trip id="2981" depart="0.10" from="861090333" to="966059358" type="DEFAULT_VEHTYPE" fromTaz="T1_880_1" toTaz="T1_17_1" departLane="free" departSpeed="max"/>
  <trip id="2000" depart="0.15" from="93631240" to="343498596" type="DEFAULT_VEHTYPE" fromTaz="T1_680_1" toTaz="T1_280_1" departLane="free" departSpeed="max"/>
  <trip id="1" depart="0.23" from="93631344" to="850757718" type="DEFAULT_VEHTYPE" fromTaz="T1_680_1" toTaz="T1_17_1" departLane="free" departSpeed="max"/>
  <trip id="2982" depart="0.30" from="861090333" to="966059358" type="DEFAULT_VEHTYPE" fromTaz="T1_880_1" toTaz="T1_17_1" departLane="free" departSpeed="max"/>
  <trip id="4461" depart="0.30" from="861090333" to="530490479#0" type="DEFAULT_VEHTYPE" fromTaz="T1_880_1" toTaz="T1_280_1" departLane="free" departSpeed="max"/>
  <trip id="2" depart="0.38" from="93631344" to="850757718" type="DEFAULT_VEHTYPE" fromTaz="T1_680_1" toTaz="T1_17_1" departLane="free" departSpeed="max"/>
  <trip id="2001" depart="0.46" from="93631240" to="343498596" type="DEFAULT_VEHTYPE" fromTaz="T1_680_1" toTaz="T1_280_1" departLane="free" departSpeed="max"/>
  <trip id="2983" depart="0.51" from="861090333" to="966059358" type="DEFAULT_VEHTYPE" fromTaz="T1_880_1" toTaz="T1_17_1" departLane="free" departSpeed="max"/>
  <trip id="3" depart="0.53" from="93631344" to="850757718" type="DEFAULT_VEHTYPE" fromTaz="T1_680_1" toTaz="T1_17_1" departLane="free" departSpeed="max"/>
  <trip id="4" depart="0.68" from="93631344" to="850757718" type="DEFAULT_VEHTYPE" fromTaz="T1_680_1" toTaz="T1_17_1" departLane="free" departSpeed="max"/>
  <trip id="2984" depart="0.71" from="861090333" to="966059358" type="DEFAULT_VEHTYPE" fromTaz="T1_880_1" toTaz="T1_17_1" departLane="free" departSpeed="max"/>
  <trip id="2002" depart="0.76" from="93631240" to="343498596" type="DEFAULT_VEHTYPE" fromTaz="T1_680_1" toTaz="T1_280_1" departLane="free" departSpeed="max"/>
  <trip id="5" depart="0.83" from="93631344" to="850757718" type="DEFAULT_VEHTYPE" fromTaz="T1_680_1" toTaz="T1_17_1" departLane="free" departSpeed="max"/>
  <trip id="4462" depart="0.89" from="861090333" to="530490479#0" type="DEFAULT_VEHTYPE" fromTaz="T1_880_1" toTaz="T1_280_1" departLane="free" departSpeed="max"/>
  <trip id="2985" depart="0.91" from="861090333" to="966059358" type="DEFAULT_VEHTYPE" fromTaz="T1_880_1" toTaz="T1_17_1" departLane="free" departSpeed="max"/>
  <trip id="6" depart="0.98" from="93631344" to="850757718" type="DEFAULT_VEHTYPE" fromTaz="T1_680_1" toTaz="T1_17_1" departLane="free" departSpeed="max"/>
  <trip id="2003" depart="1.07" from="93631240" to="343498596" type="DEFAULT_VEHTYPE" fromTaz="T1_680_1" toTaz="T1_280_1" departLane="free" departSpeed="max"/>
  <trip id="2986" depart="1.11" from="861090333" to="966059358" type="DEFAULT_VEHTYPE" fromTaz="T1_880_1" toTaz="T1_17_1" departLane="free" departSpeed="max"/>
  <trip id="7" depart="1.13" from="93631344" to="850757718" type="DEFAULT_VEHTYPE" fromTaz="T1_680_1" toTaz="T1_17_1" departLane="free" departSpeed="max"/>
  <trip id="8" depart="1.28" from="93631344" to="850757718" type="DEFAULT_VEHTYPE" fromTaz="T1_680_1" toTaz="T1_17_1" departLane="free" departSpeed="max"/>
  <trip id="2987" depart="1.32" from="861090333" to="966059358" type="DEFAULT_VEHTYPE" fromTaz="T1_880_1" toTaz="T1_17_1" departLane="free" departSpeed="max"/>
  <trip id="2004" depart="1.38" from="93631240" to="343498596" type="DEFAULT_VEHTYPE" fromTaz="T1_680_1" toTaz="T1_280_1" departLane="free" departSpeed="max"/>
  <trip id="9" depart="1.43" from="93631344" to="850757718" type="DEFAULT_VEHTYPE" fromTaz="T1_680_1" toTaz="T1_17_1" departLane="free" departSpeed="max"/>
  <trip id="4463" depart="1.48" from="861090333" to="530490479#0" type="DEFAULT_VEHTYPE" fromTaz="T1_880_1" toTaz="T1_280_1" departLane="free" departSpeed="max"/>
  <trip id="2988" depart="1.52" from="861090333" to="966059358" type="DEFAULT_VEHTYPE" fromTaz="T1_880_1" toTaz="T1_17_1" departLane="free" departSpeed="max"/>
  <trip id="10" depart="1.58" from="93631344" to="850757718" type="DEFAULT_VEHTYPE" fromTaz="T1_680_1" toTaz="T1_17_1" departLane="free" departSpeed="max"/>
  <trip id="2005" depart="1.68" from="93631240" to="343498596" type="DEFAULT_VEHTYPE" fromTaz="T1_680_1" toTaz="T1_280_1" departLane="free" departSpeed="max"/>
  <trip id="2989" depart="1.72" from="861090333" to="966059358" type="DEFAULT_VEHTYPE" fromTaz="T1_880_1" toTaz="T1_17_1" departLane="free" departSpeed="max"/>
  <trip id="11" depart="1.73" from="93631344" to="850757718" type="DEFAULT_VEHTYPE" fromTaz="T1_680_1" toTaz="T1_17_1" departLane="free" departSpeed="max"/>
  <trip id="12" depart="1.88" from="93631344" to="850757718" type="DEFAULT_VEHTYPE" fromTaz="T1_680_1" toTaz="T1_17_1" departLane="free" departSpeed="max"/>
  <trip id="2990" depart="1.93" from="861090333" to="966059358" type="DEFAULT_VEHTYPE" fromTaz="T1_880_1" toTaz="T1_17_1" departLane="free" departSpeed="max"/>
  <trip id="2006" depart="1.99" from="93631240" to="343498596" type="DEFAULT_VEHTYPE" fromTaz="T1_680_1" toTaz="T1_280_1" departLane="free" departSpeed="max"/>
  <trip id="13" depart="2.03" from="93631344" to="850757718" type="DEFAULT_VEHTYPE" fromTaz="T1_680_1" toTaz="T1_17_1" departLane="free" departSpeed="max"/>
  <trip id="4464" depart="2.08" from="861090333" to="530490479#0" type="DEFAULT_VEHTYPE" fromTaz="T1_880_1" toTaz="T1_280_1" departLane="free" departSpeed="max"/>
  <trip id="2991" depart="2.13" from="861090333" to="966059358" type="DEFAULT_VEHTYPE" fromTaz="T1_880_1" toTaz="T1_17_1" departLane="free" departSpeed="max"/>
  <trip id="14" depart="2.18" from="93631344" to="850757718" type="DEFAULT_VEHTYPE" fromTaz="T1_680_1" toTaz="T1_17_1" departLane="free" departSpeed="max"/>
  <trip id="2007" depart="2.29" from="93631240" to="343498596" type="DEFAULT_VEHTYPE" fromTaz="T1_680_1" toTaz="T1_280_1" departLane="free" departSpeed="max"/>
  <trip id="2992" depart="2.33" from="861090333" to="966059358" type="DEFAULT_VEHTYPE" fromTaz="T1_880_1" toTaz="T1_17_1" departLane="free" departSpeed="max"/>
  <trip id="15" depart="2.33" from="93631344" to="850757718" type="DEFAULT_VEHTYPE" fromTaz="T1_680_1" toTaz="T1_17_1" departLane="free" departSpeed="max"/>
  <trip id="16" depart="2.48" from="93631344" to="850757718" type="DEFAULT_VEHTYPE" fromTaz="T1_680_1" toTaz="T1_17_1" departLane="free" departSpeed="max"/>
  <trip id="2993" depart="2.53" from="861090333" to="966059358" type="DEFAULT_VEHTYPE" fromTaz="T1_880_1" toTaz="T1_17_1" departLane="free" departSpeed="max"/>
  <trip id="2008" depart="2.60" from="93631240" to="343498596" type="DEFAULT_VEHTYPE" fromTaz="T1_680_1" toTaz="T1_280_1" departLane="free" departSpeed="max"/>
  <trip id="17" depart="2.63" from="93631344" to="850757718" type="DEFAULT_VEHTYPE" fromTaz="T1_680_1" toTaz="T1_17_1" departLane="free" departSpeed="max"/>
  <trip id="4465" depart="2.67" from="861090333" to="530490479#0" type="DEFAULT_VEHTYPE" fromTaz="T1_880_1" toTaz="T1_280_1" departLane="free" departSpeed="max"/>
  <trip id="2994" depart="2.74" from="861090333" to="966059358" type="DEFAULT_VEHTYPE" fromTaz="T1_880_1" toTaz="T1_17_1" departLane="free" departSpeed="max"/>
  <trip id="18" depart="2.78" from="93631344" to="850757718" type="DEFAULT_VEHTYPE" fromTaz="T1_680_1" toTaz="T1_17_1" departLane="free" departSpeed="max"/>
  <trip id="2009" depart="2.91" from="93631240" to="343498596" type="DEFAULT_VEHTYPE" fromTaz="T1_680_1" toTaz="T1_280_1" departLane="free" departSpeed="max"/>
  <trip id="19" depart="2.93" from="93631344" to="850757718" type="DEFAULT_VEHTYPE" fromTaz="T1_680_1" toTaz="T1_17_1" departLane="free" departSpeed="max"/>
  <trip id="2995" depart="2.94" from="861090333" to="966059358" type="DEFAULT_VEHTYPE" fromTaz="T1_880_1" toTaz="T1_17_1" departLane="free" departSpeed="max"/>
  <trip id="20" depart="3.08" from="93631344" to="850757718" type="DEFAULT_VEHTYPE" fromTaz="T1_680_1" toTaz="T1_17_1" departLane="free" departSpeed="max"/>
  <trip id="2996" depart="3.14" from="861090333" to="966059358" type="DEFAULT_VEHTYPE" fromTaz="T1_880_1" toTaz="T1_17_1" departLane="free" departSpeed="max"/>
  <trip id="2010" depart="3.21" from="93631240" to="343498596" type="DEFAULT_VEHTYPE" fromTaz="T1_680_1" toTaz="T1_280_1" departLane="free" departSpeed="max"/>
  <trip id="21" depart="3.23" from="93631344" to="850757718" type="DEFAULT_VEHTYPE" fromTaz="T1_680_1" toTaz="T1_17_1" departLane="free" departSpeed="max"/>
  <trip id="4466" depart="3.26" from="861090333" to="530490479#0" type="DEFAULT_VEHTYPE" fromTaz="T1_880_1" toTaz="T1_280_1" departLane="free" departSpeed="max"/>
  <trip id="2997" depart="3.34" from="861090333" to="966059358" type="DEFAULT_VEHTYPE" fromTaz="T1_880_1" toTaz="T1_17_1" departLane="free" departSpeed="max"/>
  <trip id="22" depart="3.38" from="93631344" to="850757718" type="DEFAULT_VEHTYPE" fromTaz="T1_680_1" toTaz="T1_17_1" departLane="free" departSpeed="max"/>
  <trip id="2011" depart="3.52" from="93631240" to="343498596" type="DEFAULT_VEHTYPE" fromTaz="T1_680_1" toTaz="T1_280_1" departLane="free" departSpeed="max"/>
  <trip id="23" depart="3.53" from="93631344" to="850757718" type="DEFAULT_VEHTYPE" fromTaz="T1_680_1" toTaz="T1_17_1" departLane="free" departSpeed="max"/>
  <trip id="2998" depart="3.55" from="861090333" to="966059358" type="DEFAULT_VEHTYPE" fromTaz="T1_880_1" toTaz="T1_17_1" departLane="free" departSpeed="max"/>
  <trip id="24" depart="3.68" from="93631344" to="850757718" type="DEFAULT_VEHTYPE" fromTaz="T1_680_1" toTaz="T1_17_1" departLane="free" departSpeed="max"/>
  <trip id="2999" depart="3.75" from="861090333" to="966059358" type="DEFAULT_VEHTYPE" fromTaz="T1_880_1" toTaz="T1_17_1" departLane="free" departSpeed="max"/>
  <trip id="2012" depart="3.82" from="93631240" to="343498596" type="DEFAULT_VEHTYPE" fromTaz="T1_680_1" toTaz="T1_280_1" departLane="free" departSpeed="max"/>
  <trip id="25" depart="3.83" from="93631344" to="850757718" type="DEFAULT_VEHTYPE" fromTaz="T1_680_1" toTaz="T1_17_1" departLane="free" departSpeed="max"/>
  <trip id="4467" depart="3.85" from="861090333" to="530490479#0" type="DEFAULT_VEHTYPE" fromTaz="T1_880_1" toTaz="T1_280_1" departLane="free" departSpeed="max"/>
  <trip id="3000" depart="3.95" from="861090333" to="966059358" type="DEFAULT_VEHTYPE" fromTaz="T1_880_1" toTaz="T1_17_1" departLane="free" departSpeed="max"/>
  <trip id="26" depart="3.98" from="93631344" to="850757718" type="DEFAULT_VEHTYPE" fromTaz="T1_680_1" toTaz="T1_17_1" departLane="free" departSpeed="max"/>
  <trip id="27" depart="4.13" from="93631344" to="850757718" type="DEFAULT_VEHTYPE" fromTaz="T1_680_1" toTaz="T1_17_1" departLane="free" departSpeed="max"/>
  <trip id="2013" depart="4.13" from="93631240" to="343498596" type="DEFAULT_VEHTYPE" fromTaz="T1_680_1" toTaz="T1_280_1" departLane="free" departSpeed="max"/>
  <trip id="3001" depart="4.16" from="861090333" to="966059358" type="DEFAULT_VEHTYPE" fromTaz="T1_880_1" toTaz="T1_17_1" departLane="free" departSpeed="max"/>
  <trip id="28" depart="4.28" from="93631344" to="850757718" type="DEFAULT_VEHTYPE" fromTaz="T1_680_1" toTaz="T1_17_1" departLane="free" departSpeed="max"/>
  <trip id="3002" depart="4.36" from="861090333" to="966059358" type="DEFAULT_VEHTYPE" fromTaz="T1_880_1" toTaz="T1_17_1" departLane="free" departSpeed="max"/>
  <trip id="2014" depart="4.43" from="93631240" to="343498596" type="DEFAULT_VEHTYPE" fromTaz="T1_680_1" toTaz="T1_280_1" departLane="free" departSpeed="max"/>
  <trip id="29" depart="4.43" from="93631344" to="850757718" type="DEFAULT_VEHTYPE" fromTaz="T1_680_1" toTaz="T1_17_1" departLane="free" departSpeed="max"/>
  <trip id="4468" depart="4.45" from="861090333" to="530490479#0" type="DEFAULT_VEHTYPE" fromTaz="T1_880_1" toTaz="T1_280_1" departLane="free" departSpeed="max"/>
  <trip id="3003" depart="4.56" from="861090333" to="966059358" type="DEFAULT_VEHTYPE" fromTaz="T1_880_1" toTaz="T1_17_1" departLane="free" departSpeed="max"/>
  <trip id="30" depart="4.58" from="93631344" to="850757718" type="DEFAULT_VEHTYPE" fromTaz="T1_680_1" toTaz="T1_17_1" departLane="free" departSpeed="max"/>
  <trip id="31" depart="4.73" from="93631344" to="850757718" type="DEFAULT_VEHTYPE" fromTaz="T1_680_1" toTaz="T1_17_1" departLane="free" departSpeed="max"/>
  <trip id="2015" depart="4.74" from="93631240" to="343498596" type="DEFAULT_VEHTYPE" fromTaz="T1_680_1" toTaz="T1_280_1" departLane="free" departSpeed="max"/>
  <trip id="3004" depart="4.76" from="861090333" to="966059358" type="DEFAULT_VEHTYPE" fromTaz="T1_880_1" toTaz="T1_17_1" departLane="free" departSpeed="max"/>
  <trip id="32" depart="4.88" from="93631344" to="850757718" type="DEFAULT_VEHTYPE" fromTaz="T1_680_1" toTaz="T1_17_1" departLane="free" departSpeed="max"/>
  <trip id="3005" depart="4.97" from="861090333" to="966059358" type="DEFAULT_VEHTYPE" fromTaz="T1_880_1" toTaz="T1_17_1" departLane="free" departSpeed="max"/>
  <trip id="33" depart="5.03" from="93631344" to="850757718" type="DEFAULT_VEHTYPE" fromTaz="T1_680_1" toTaz="T1_17_1" departLane="free" departSpeed="max"/>
  <trip id="4469" depart="5.04" from="861090333" to="530490479#0" type="DEFAULT_VEHTYPE" fromTaz="T1_880_1" toTaz="T1_280_1" departLane="free" departSpeed="max"/>
  <trip id="2016" depart="5.05" from="93631240" to="343498596" type="DEFAULT_VEHTYPE" fromTaz="T1_680_1" toTaz="T1_280_1" departLane="free" departSpeed="max"/>
  <trip id="3006" depart="5.17" from="861090333" to="966059358" type="DEFAULT_VEHTYPE" fromTaz="T1_880_1" toTaz="T1_17_1" departLane="free" departSpeed="max"/>
  <trip id="34" depart="5.18" from="93631344" to="850757718" type="DEFAULT_VEHTYPE" fromTaz="T1_680_1" toTaz="T1_17_1" departLane="free" departSpeed="max"/>
  <trip id="35" depart="5.33" from="93631344" to="850757718" type="DEFAULT_VEHTYPE" fromTaz="T1_680_1" toTaz="T1_17_1" departLane="free" departSpeed="max"/>
  <trip id="2017" depart="5.35" from="93631240" to="343498596" type="DEFAULT_VEHTYPE" fromTaz="T1_680_1" toTaz="T1_280_1" departLane="free" departSpeed="max"/>
  <trip id="3007" depart="5.37" from="861090333" to="966059358" type="DEFAULT_VEHTYPE" fromTaz="T1_880_1" toTaz="T1_17_1" departLane="free" departSpeed="max"/>
  <trip id="36" depart="5.48" from="93631344" to="850757718" type="DEFAULT_VEHTYPE" fromTaz="T1_680_1" toTaz="T1_17_1" departLane="free" departSpeed="max"/>
  <trip id="3008" depart="5.57" from="861090333" to="966059358" type="DEFAULT_VEHTYPE" fromTaz="T1_880_1" toTaz="T1_17_1" departLane="free" departSpeed="max"/>
  <trip id="37" depart="5.63" from="93631344" to="850757718" type="DEFAULT_VEHTYPE" fromTaz="T1_680_1" toTaz="T1_17_1" departLane="free" departSpeed="max"/>
  <trip id="4470" depart="5.63" from="861090333" to="530490479#0" type="DEFAULT_VEHTYPE" fromTaz="T1_880_1" toTaz="T1_280_1" departLane="free" departSpeed="max"/>
  <trip id="2018" depart="5.66" from="93631240" to="343498596" type="DEFAULT_VEHTYPE" fromTaz="T1_680_1" toTaz="T1_280_1" departLane="free" departSpeed="max"/>
  <trip id="38" depart="5.78" from="93631344" to="850757718" type="DEFAULT_VEHTYPE" fromTaz="T1_680_1" toTaz="T1_17_1" departLane="free" departSpeed="max"/>
  <trip id="3009" depart="5.78" from="861090333" to="966059358" type="DEFAULT_VEHTYPE" fromTaz="T1_880_1" toTaz="T1_17_1" departLane="free" departSpeed="max"/>
  <trip id="39" depart="5.93" from="93631344" to="850757718" type="DEFAULT_VEHTYPE" fromTaz="T1_680_1" toTaz="T1_17_1" departLane="free" departSpeed="max"/>
  <trip id="2019" depart="5.96" from="93631240" to="343498596" type="DEFAULT_VEHTYPE" fromTaz="T1_680_1" toTaz="T1_280_1" departLane="free" departSpeed="max"/>
  <trip id="3010" depart="5.98" from="861090333" to="966059358" type="DEFAULT_VEHTYPE" fromTaz="T1_880_1" toTaz="T1_17_1" departLane="free" departSpeed="max"/>
  <trip id="40" depart="6.08" from="93631344" to="850757718" type="DEFAULT_VEHTYPE" fromTaz="T1_680_1" toTaz="T1_17_1" departLane="free" departSpeed="max"/>
  <trip id="3011" depart="6.18" from="861090333" to="966059358" type="DEFAULT_VEHTYPE" fromTaz="T1_880_1" toTaz="T1_17_1" departLane="free" departSpeed="max"/>
  <trip id="4471" depart="6.23" from="861090333" to="530490479#0" type="DEFAULT_VEHTYPE" fromTaz="T1_880_1" toTaz="T1_280_1" departLane="free" departSpeed="max"/>
  <trip id="41" depart="6.23" from="93631344" to="850757718" type="DEFAULT_VEHTYPE" fromTaz="T1_680_1" toTaz="T1_17_1" departLane="free" departSpeed="max"/>
  <trip id="2020" depart="6.27" from="93631240" to="343498596" type="DEFAULT_VEHTYPE" fromTaz="T1_680_1" toTaz="T1_280_1" departLane="free" departSpeed="max"/>
  <trip id="42" depart="6.38" from="93631344" to="850757718" type="DEFAULT_VEHTYPE" fromTaz="T1_680_1" toTaz="T1_17_1" departLane="free" departSpeed="max"/>
  <trip id="3012" depart="6.39" from="861090333" to="966059358" type="DEFAULT_VEHTYPE" fromTaz="T1_880_1" toTaz="T1_17_1" departLane="free" departSpeed="max"/>
  <trip id="43" depart="6.53" from="93631344" to="850757718" type="DEFAULT_VEHTYPE" fromTaz="T1_680_1" toTaz="T1_17_1" departLane="free" departSpeed="max"/>
  <trip id="2021" depart="6.57" from="93631240" to="343498596" type="DEFAULT_VEHTYPE" fromTaz="T1_680_1" toTaz="T1_280_1" departLane="free" departSpeed="max"/>
  <trip id="3013" depart="6.59" from="861090333" to="966059358" type="DEFAULT_VEHTYPE" fromTaz="T1_880_1" toTaz="T1_17_1" departLane="free" departSpeed="max"/>
  <trip id="44" depart="6.68" from="93631344" to="850757718" type="DEFAULT_VEHTYPE" fromTaz="T1_680_1" toTaz="T1_17_1" departLane="free" departSpeed="max"/>
  <trip id="3014" depart="6.79" from="861090333" to="966059358" type="DEFAULT_VEHTYPE" fromTaz="T1_880_1" toTaz="T1_17_1" departLane="free" departSpeed="max"/>
  <trip id="4472" depart="6.82" from="861090333" to="530490479#0" type="DEFAULT_VEHTYPE" fromTaz="T1_880_1" toTaz="T1_280_1" departLane="free" departSpeed="max"/>
  <trip id="45" depart="6.83" from="93631344" to="850757718" type="DEFAULT_VEHTYPE" fromTaz="T1_680_1" toTaz="T1_17_1" departLane="free" departSpeed="max"/>
  <trip id="2022" depart="6.88" from="93631240" to="343498596" type="DEFAULT_VEHTYPE" fromTaz="T1_680_1" toTaz="T1_280_1" departLane="free" departSpeed="max"/>
  <trip id="46" depart="6.98" from="93631344" to="850757718" type="DEFAULT_VEHTYPE" fromTaz="T1_680_1" toTaz="T1_17_1" departLane="free" departSpeed="max"/>
  <trip id="3015" depart="6.99" from="861090333" to="966059358" type="DEFAULT_VEHTYPE" fromTaz="T1_880_1" toTaz="T1_17_1" departLane="free" departSpeed="max"/>
  <trip id="47" depart="7.13" from="93631344" to="850757718" type="DEFAULT_VEHTYPE" fromTaz="T1_680_1" toTaz="T1_17_1" departLane="free" departSpeed="max"/>
  <trip id="2023" depart="7.19" from="93631240" to="343498596" type="DEFAULT_VEHTYPE" fromTaz="T1_680_1" toTaz="T1_280_1" departLane="free" departSpeed="max"/>
  <trip id="3016" depart="7.20" from="861090333" to="966059358" type="DEFAULT_VEHTYPE" fromTaz="T1_880_1" toTaz="T1_17_1" departLane="free" departSpeed="max"/>
  <trip id="48" depart="7.28" from="93631344" to="850757718" type="DEFAULT_VEHTYPE" fromTaz="T1_680_1" toTaz="T1_17_1" departLane="free" departSpeed="max"/>
  <trip id="3017" depart="7.40" from="861090333" to="966059358" type="DEFAULT_VEHTYPE" fromTaz="T1_880_1" toTaz="T1_17_1" departLane="free" departSpeed="max"/>
  <trip id="4473" depart="7.41" from="861090333" to="530490479#0" type="DEFAULT_VEHTYPE" fromTaz="T1_880_1" toTaz="T1_280_1" departLane="free" departSpeed="max"/>
  <trip id="49" depart="7.43" from="93631344" to="850757718" type="DEFAULT_VEHTYPE" fromTaz="T1_680_1" toTaz="T1_17_1" departLane="free" departSpeed="max"/>
  <trip id="2024" depart="7.49" from="93631240" to="343498596" type="DEFAULT_VEHTYPE" fromTaz="T1_680_1" toTaz="T1_280_1" departLane="free" departSpeed="max"/>
  <trip id="50" depart="7.58" from="93631344" to="850757718" type="DEFAULT_VEHTYPE" fromTaz="T1_680_1" toTaz="T1_17_1" departLane="free" departSpeed="max"/>
  <trip id="3018" depart="7.60" from="861090333" to="966059358" type="DEFAULT_VEHTYPE" fromTaz="T1_880_1" toTaz="T1_17_1" departLane="free" departSpeed="max"/>
  <trip id="51" depart="7.73" from="93631344" to="850757718" type="DEFAULT_VEHTYPE" fromTaz="T1_680_1" toTaz="T1_17_1" departLane="free" departSpeed="max"/>
  <trip id="3019" depart="7.80" from="861090333" to="966059358" type="DEFAULT_VEHTYPE" fromTaz="T1_880_1" toTaz="T1_17_1" departLane="free" departSpeed="max"/>
  <trip id="2025" depart="7.80" from="93631240" to="343498596" type="DEFAULT_VEHTYPE" fromTaz="T1_680_1" toTaz="T1_280_1" departLane="free" departSpeed="max"/>
  <trip id="52" depart="7.88" from="93631344" to="850757718" type="DEFAULT_VEHTYPE" fromTaz="T1_680_1" toTaz="T1_17_1" departLane="free" departSpeed="max"/>
  <trip id="4474" depart="8.00" from="861090333" to="530490479#0" type="DEFAULT_VEHTYPE" fromTaz="T1_880_1" toTaz="T1_280_1" departLane="free" departSpeed="max"/>
  <trip id="3020" depart="8.01" from="861090333" to="966059358" type="DEFAULT_VEHTYPE" fromTaz="T1_880_1" toTaz="T1_17_1" departLane="free" departSpeed="max"/>
  <trip id="53" depart="8.03" from="93631344" to="850757718" type="DEFAULT_VEHTYPE" fromTaz="T1_680_1" toTaz="T1_17_1" departLane="free" departSpeed="max"/>
  <trip id="2026" depart="8.10" from="93631240" to="343498596" type="DEFAULT_VEHTYPE" fromTaz="T1_680_1" toTaz="T1_280_1" departLane="free" departSpeed="max"/>
  <trip id="54" depart="8.18" from="93631344" to="850757718" type="DEFAULT_VEHTYPE" fromTaz="T1_680_1" toTaz="T1_17_1" departLane="free" departSpeed="max"/>
  <trip id="3021" depart="8.21" from="861090333" to="966059358" type="DEFAULT_VEHTYPE" fromTaz="T1_880_1" toTaz="T1_17_1" departLane="free" departSpeed="max"/>
  <trip id="55" depart="8.33" from="93631344" to="850757718" type="DEFAULT_VEHTYPE" fromTaz="T1_680_1" toTaz="T1_17_1" departLane="free" departSpeed="max"/>
  <trip id="3022" depart="8.41" from="861090333" to="966059358" type="DEFAULT_VEHTYPE" fromTaz="T1_880_1" toTaz="T1_17_1" departLane="free" departSpeed="max"/>
  <trip id="2027" depart="8.41" from="93631240" to="343498596" type="DEFAULT_VEHTYPE" fromTaz="T1_680_1" toTaz="T1_280_1" departLane="free" departSpeed="max"/>
  <trip id="56" depart="8.48" from="93631344" to="850757718" type="DEFAULT_VEHTYPE" fromTaz="T1_680_1" toTaz="T1_17_1" departLane="free" departSpeed="max"/>
  <trip id="4475" depart="8.60" from="861090333" to="530490479#0" type="DEFAULT_VEHTYPE" fromTaz="T1_880_1" toTaz="T1_280_1" departLane="free" departSpeed="max"/>
  <trip id="3023" depart="8.61" from="861090333" to="966059358" type="DEFAULT_VEHTYPE" fromTaz="T1_880_1" toTaz="T1_17_1" departLane="free" departSpeed="max"/>
  <trip id="57" depart="8.63" from="93631344" to="850757718" type="DEFAULT_VEHTYPE" fromTaz="T1_680_1" toTaz="T1_17_1" departLane="free" departSpeed="max"/>
  <trip id="2028" depart="8.72" from="93631240" to="343498596" type="DEFAULT_VEHTYPE" fromTaz="T1_680_1" toTaz="T1_280_1" departLane="free" departSpeed="max"/>
  <trip id="58" depart="8.78" from="93631344" to="850757718" type="DEFAULT_VEHTYPE" fromTaz="T1_680_1" toTaz="T1_17_1" departLane="free" departSpeed="max"/>
  <trip id="3024" depart="8.82" from="861090333" to="966059358" type="DEFAULT_VEHTYPE" fromTaz="T1_880_1" toTaz="T1_17_1" departLane="free" departSpeed="max"/>
  <trip id="59" depart="8.93" from="93631344" to="850757718" type="DEFAULT_VEHTYPE" fromTaz="T1_680_1" toTaz="T1_17_1" departLane="free" departSpeed="max"/>
  <trip id="2029" depart="9.02" from="93631240" to="343498596" type="DEFAULT_VEHTYPE" fromTaz="T1_680_1" toTaz="T1_280_1" departLane="free" departSpeed="max"/>
  <trip id="3025" depart="9.02" from="861090333" to="966059358" type="DEFAULT_VEHTYPE" fromTaz="T1_880_1" toTaz="T1_17_1" departLane="free" departSpeed="max"/>
  <trip id="60" depart="9.08" from="93631344" to="850757718" type="DEFAULT_VEHTYPE" fromTaz="T1_680_1" toTaz="T1_17_1" departLane="free" departSpeed="max"/>
  <trip id="4476" depart="9.19" from="861090333" to="530490479#0" type="DEFAULT_VEHTYPE" fromTaz="T1_880_1" toTaz="T1_280_1" departLane="free" departSpeed="max"/>
  <trip id="3026" depart="9.22" from="861090333" to="966059358" type="DEFAULT_VEHTYPE" fromTaz="T1_880_1" toTaz="T1_17_1" departLane="free" departSpeed="max"/>
  <trip id="61" depart="9.23" from="93631344" to="850757718" type="DEFAULT_VEHTYPE" fromTaz="T1_680_1" toTaz="T1_17_1" departLane="free" departSpeed="max"/>
  <trip id="2030" depart="9.33" from="93631240" to="343498596" type="DEFAULT_VEHTYPE" fromTaz="T1_680_1" toTaz="T1_280_1" departLane="free" departSpeed="max"/>
  <trip id="62" depart="9.38" from="93631344" to="850757718" type="DEFAULT_VEHTYPE" fromTaz="T1_680_1" toTaz="T1_17_1" departLane="free" departSpeed="max"/>
  <trip id="3027" depart="9.43" from="861090333" to="966059358" type="DEFAULT_VEHTYPE" fromTaz="T1_880_1" toTaz="T1_17_1" departLane="free" departSpeed="max"/>
  <trip id="63" depart="9.53" from="93631344" to="850757718" type="DEFAULT_VEHTYPE" fromTaz="T1_680_1" toTaz="T1_17_1" departLane="free" departSpeed="max"/>
  <trip id="2031" depart="9.63" from="93631240" to="343498596" type="DEFAULT_VEHTYPE" fromTaz="T1_680_1" toTaz="T1_280_1" departLane="free" departSpeed="max"/>
  <trip id="3028" depart="9.63" from="861090333" to="966059358" type="DEFAULT_VEHTYPE" fromTaz="T1_880_1" toTaz="T1_17_1" departLane="free" departSpeed="max"/>
  <trip id="64" depart="9.68" from="93631344" to="850757718" type="DEFAULT_VEHTYPE" fromTaz="T1_680_1" toTaz="T1_17_1" departLane="free" departSpeed="max"/>
  <trip id="4477" depart="9.78" from="861090333" to="530490479#0" type="DEFAULT_VEHTYPE" fromTaz="T1_880_1" toTaz="T1_280_1" departLane="free" departSpeed="max"/>
  <trip id="3029" depart="9.83" from="861090333" to="966059358" type="DEFAULT_VEHTYPE" fromTaz="T1_880_1" toTaz="T1_17_1" departLane="free" departSpeed="max"/>
  <trip id="65" depart="9.83" from="93631344" to="850757718" type="DEFAULT_VEHTYPE" fromTaz="T1_680_1" toTaz="T1_17_1" departLane="free" departSpeed="max"/>
  <trip id="2032" depart="9.94" from="93631240" to="343498596" type="DEFAULT_VEHTYPE" fromTaz="T1_680_1" toTaz="T1_280_1" departLane="free" departSpeed="max"/>
  <trip id="66" depart="9.98" from="93631344" to="850757718" type="DEFAULT_VEHTYPE" fromTaz="T1_680_1" toTaz="T1_17_1" departLane="free" departSpeed="max"/>
  <trip id="3030" depart="10.03" from="861090333" to="966059358" type="DEFAULT_VEHTYPE" fromTaz="T1_880_1" toTaz="T1_17_1" departLane="free" departSpeed="max"/>
  <trip id="67" depart="10.13" from="93631344" to="850757718" type="DEFAULT_VEHTYPE" fromTaz="T1_680_1" toTaz="T1_17_1" departLane="free" departSpeed="max"/>
  <trip id="2033" depart="10.24" from="93631240" to="343498596" type="DEFAULT_VEHTYPE" fromTaz="T1_680_1" toTaz="T1_280_1" departLane="free" departSpeed="max"/>
  <trip id="3031" depart="10.24" from="861090333" to="966059358" type="DEFAULT_VEHTYPE" fromTaz="T1_880_1" toTaz="T1_17_1" departLane="free" departSpeed="max"/>
  <trip id="68" depart="10.28" from="93631344" to="850757718" type="DEFAULT_VEHTYPE" fromTaz="T1_680_1" toTaz="T1_17_1" departLane="free" departSpeed="max"/>
  <trip id="4478" depart="10.38" from="861090333" to="530490479#0" type="DEFAULT_VEHTYPE" fromTaz="T1_880_1" toTaz="T1_280_1" departLane="free" departSpeed="max"/>
  <trip id="69" depart="10.43" from="93631344" to="850757718" type="DEFAULT_VEHTYPE" fromTaz="T1_680_1" toTaz="T1_17_1" departLane="free" departSpeed="max"/>
  <trip id="3032" depart="10.44" from="861090333" to="966059358" type="DEFAULT_VEHTYPE" fromTaz="T1_880_1" toTaz="T1_17_1" departLane="free" departSpeed="max"/>
  <trip id="2034" depart="10.55" from="93631240" to="343498596" type="DEFAULT_VEHTYPE" fromTaz="T1_680_1" toTaz="T1_280_1" departLane="free" departSpeed="max"/>
  <trip id="70" depart="10.58" from="93631344" to="850757718" type="DEFAULT_VEHTYPE" fromTaz="T1_680_1" toTaz="T1_17_1" departLane="free" departSpeed="max"/>
  <trip id="3033" depart="10.64" from="861090333" to="966059358" type="DEFAULT_VEHTYPE" fromTaz="T1_880_1" toTaz="T1_17_1" departLane="free" departSpeed="max"/>
  <trip id="71" depart="10.73" from="93631344" to="850757718" type="DEFAULT_VEHTYPE" fromTaz="T1_680_1" toTaz="T1_17_1" departLane="free" departSpeed="max"/>
  <trip id="3034" depart="10.84" from="861090333" to="966059358" type="DEFAULT_VEHTYPE" fromTaz="T1_880_1" toTaz="T1_17_1" departLane="free" departSpeed="max"/>
  <trip id="2035" depart="10.86" from="93631240" to="343498596" type="DEFAULT_VEHTYPE" fromTaz="T1_680_1" toTaz="T1_280_1" departLane="free" departSpeed="max"/>
  <trip id="72" depart="10.88" from="93631344" to="850757718" type="DEFAULT_VEHTYPE" fromTaz="T1_680_1" toTaz="T1_17_1" departLane="free" departSpeed="max"/>
  <trip id="4479" depart="10.97" from="861090333" to="530490479#0" type="DEFAULT_VEHTYPE" fromTaz="T1_880_1" toTaz="T1_280_1" departLane="free" departSpeed="max"/>
  <trip id="73" depart="11.03" from="93631344" to="850757718" type="DEFAULT_VEHTYPE" fromTaz="T1_680_1" toTaz="T1_17_1" departLane="free" departSpeed="max"/>
  <trip id="3035" depart="11.05" from="861090333" to="966059358" type="DEFAULT_VEHTYPE" fromTaz="T1_880_1" toTaz="T1_17_1" departLane="free" departSpeed="max"/>
  <trip id="2036" depart="11.16" from="93631240" to="343498596" type="DEFAULT_VEHTYPE" fromTaz="T1_680_1" toTaz="T1_280_1" departLane="free" departSpeed="max"/>
  <trip id="74" depart="11.18" from="93631344" to="850757718" type="DEFAULT_VEHTYPE" fromTaz="T1_680_1" toTaz="T1_17_1" departLane="free" departSpeed="max"/>
  <trip id="3036" depart="11.25" from="861090333" to="966059358" type="DEFAULT_VEHTYPE" fromTaz="T1_880_1" toTaz="T1_17_1" departLane="free" departSpeed="max"/>
  <trip id="75" depart="11.33" from="93631344" to="850757718" type="DEFAULT_VEHTYPE" fromTaz="T1_680_1" toTaz="T1_17_1" departLane="free" departSpeed="max"/>