<?xml version='1.0' encoding='utf-8'?>
<routes>
  <trip id="1075" depart="0.13" from="D4" to="D5" type="DEFAULT_VEHTYPE" fromTaz="taz92" toTaz="taz93" departLane="free" departSpeed="max"/>
  <trip id="174" depart="0.17" from="D2" to="D7" type="DEFAULT_VEHTYPE" fromTaz="taz91" toTaz="taz94" departLane="free" departSpeed="max"/>
  <trip id="2193" depart="0.21" from="D4" to="D7" type="DEFAULT_VEHTYPE" fromTaz="taz92" toTaz="taz94" departLane="free" departSpeed="max"/>
  <trip id="1076" depart="0.40" from="D4" to="D5" type="DEFAULT_VEHTYPE" fromTaz="taz92" toTaz="taz93" departLane="free" departSpeed="max"/>
  <trip id="175" depart="0.50" from="D2" to="D7" type="DEFAULT_VEHTYPE" fromTaz="taz91" toTaz="taz94" departLane="free" departSpeed="max"/>
  <trip id="2194" depart="0.62" from="D4" to="D7" type="DEFAULT_VEHTYPE" fromTaz="taz92" toTaz="taz94" departLane="free" departSpeed="max"/>
  <trip id="1077" depart="0.67" from="D4" to="D5" type="DEFAULT_VEHTYPE" fromTaz="taz92" toTaz="taz93" departLane="free" departSpeed="max"/>
  <trip id="176" depart="0.83" from="D2" to="D7" type="DEFAULT_VEHTYPE" fromTaz="taz91" toTaz="taz94" departLane="free" departSpeed="max"/>
  <trip id="0" depart="0.86" from="D2" to="D5" type="DEFAULT_VEHTYPE" fromTaz="taz91" toTaz="taz93" departLane="free" departSpeed="max"/>
  <trip id="1078" depart="0.94" from="D4" to="D5" type="DEFAULT_VEHTYPE" fromTaz="taz92" toTaz="taz93" departLane="free" departSpeed="max"/>
  <trip id="2195" depart="1.03" from="D4" to="D7" type="DEFAULT_VEHTYPE" fromTaz="taz92" toTaz="taz94" departLane="free" departSpeed="max"/>
  <trip id="177" depart="1.17" from="D2" to="D7" type="DEFAULT_VEHTYPE" fromTaz="taz91" toTaz="taz94" departLane="free" departSpeed="max"/>
  <trip id="1079" depart="1.21" from="D4" to="D5" type="DEFAULT_VEHTYPE" fromTaz="taz92" toTaz="taz93" departLane="free" departSpeed="max"/>
  <trip id="2196" depart="1.44" from="D4" to="D7" type="DEFAULT_VEHTYPE" fromTaz="taz92" toTaz="taz94" departLane="free" departSpeed="max"/>
  <trip id="1080" depart="1.48" from="D4" to="D5" type="DEFAULT_VEHTYPE" fromTaz="taz92" toTaz="taz93" departLane="free" departSpeed="max"/>
  <trip id="178" depart="1.50" from="D2" to="D7" type="DEFAULT_VEHTYPE" fromTaz="taz91" toTaz="taz94" departLane="free" departSpeed="max"/>
  <trip id="1081" depart="1.74" from="D4" to="D5" type="DEFAULT_VEHTYPE" fromTaz="taz92" toTaz="taz93" departLane="free" departSpeed="max"/>
  <trip id="179" depart="1.83" from="D2" to="D7" type="DEFAULT_VEHTYPE" fromTaz="taz91" toTaz="taz94" departLane="free" departSpeed="max"/>
  <trip id="2197" depart="1.86" from="D4" to="D7" type="DEFAULT_VEHTYPE" fromTaz="taz92" toTaz="taz94" departLane="free" departSpeed="max"/>
  <trip id="1082" depart="2.01" from="D4" to="D5" type="DEFAULT_VEHTYPE" fromTaz="taz92" toTaz="taz93" departLane="free" departSpeed="max"/>
  <trip id="180" depart="2.16" from="D2" to="D7" type="DEFAULT_VEHTYPE" fromTaz="taz91" toTaz="taz94" departLane="free" departSpeed="max"/>
  <trip id="2198" depart="2.27" from="D4" to="D7" type="DEFAULT_VEHTYPE" fromTaz="taz92" toTaz="taz94" departLane="free" departSpeed="max"/>
  <trip id="1083" depart="2.28" from="D4" to="D5" type="DEFAULT_VEHTYPE" fromTaz="taz92" toTaz="taz93" departLane="free" departSpeed="max"/>
  <trip id="181" depart="2.50" from="D2" to="D7" type="DEFAULT_VEHTYPE" fromTaz="taz91" toTaz="taz94" departLane="free" departSpeed="max"/>
  <trip id="1084" depart="2.55" from="D4" to="D5" type="DEFAULT_VEHTYPE" fromTaz="taz92" toTaz="taz93" departLane="free" departSpeed="max"/>
  <trip id="1" depart="2.59" from="D2" to="D5" type="DEFAULT_VEHTYPE" fromTaz="taz91" toTaz="taz93" departLane="free" departSpeed="max"/>
  <trip id="2199" depart="2.68" from="D4" to="D7" type="DEFAULT_VEHTYPE" fromTaz="taz92" toTaz="taz94" departLane="free" departSpeed="max"/>
  <trip id="1085" depart="2.82" from="D4" to="D5" type="DEFAULT_VEHTYPE" fromTaz="taz92" toTaz="taz93" departLane="free" departSpeed="max"/>
  <trip id="182" depart="2.83" from="D2" to="D7" type="DEFAULT_VEHTYPE" fromTaz="taz91" toTaz="taz94" departLane="free" departSpeed="max"/>
  <trip id="2200" depart="3.09" from="D4" to="D7" type="DEFAULT_VEHTYPE" fromTaz="taz92" toTaz="taz94" departLane="free" departSpeed="max"/>
  <trip id="1086" depart="3.09" from="D4" to="D5" type="DEFAULT_VEHTYPE" fromTaz="taz92" toTaz="taz93" departLane="free" departSpeed="max"/>
  <trip id="183" depart="3.16" from="D2" to="D7" type="DEFAULT_VEHTYPE" fromTaz="taz91" toTaz="taz94" departLane="free" departSpeed="max"/>
  <trip id="1087" depart="3.35" from="D4" to="D5" type="DEFAULT_VEHTYPE" fromTaz="taz92" toTaz="taz93" departLane="free" departSpeed="max"/>
  <trip id="184" depart="3.50" from="D2" to="D7" type="DEFAULT_VEHTYPE" fromTaz="taz91" toTaz="taz94" departLane="free" departSpeed="max"/>
  <trip id="2201" depart="3.51" from="D4" to="D7" type="DEFAULT_VEHTYPE" fromTaz="taz92" toTaz="taz94" departLane="free" departSpeed="max"/>
  <trip id="1088" depart="3.62" from="D4" to="D5" type="DEFAULT_VEHTYPE" fromTaz="taz92" toTaz="taz93" departLane="free" departSpeed="max"/>
  <trip id="185" depart="3.83" from="D2" to="D7" type="DEFAULT_VEHTYPE" fromTaz="taz91" toTaz="taz94" departLane="free" departSpeed="max"/>
  <trip id="1089" depart="3.89" from="D4" to="D5" type="DEFAULT_VEHTYPE" fromTaz="taz92" toTaz="taz93" departLane="free" departSpeed="max"/>
  <trip id="2202" depart="3.92" from="D4" to="D7" type="DEFAULT_VEHTYPE" fromTaz="taz92" toTaz="taz94" departLane="free" departSpeed="max"/>
  <trip id="1090" depart="4.16" from="D4" to="D5" type="DEFAULT_VEHTYPE" fromTaz="taz92" toTaz="taz93" departLane="free" departSpeed="max"/>
  <trip id="186" depart="4.16" from="D2" to="D7" type="DEFAULT_VEHTYPE" fromTaz="taz91" toTaz="taz94" departLane="free" departSpeed="max"/>
  <trip id="2" depart="4.31" from="D2" to="D5" type="DEFAULT_VEHTYPE" fromTaz="taz91" toTaz="taz93" departLane="free" departSpeed="max"/>
  <trip id="2203" depart="4.33" from="D4" to="D7" type="DEFAULT_VEHTYPE" fromTaz="taz92" toTaz="taz94" departLane="free" departSpeed="max"/>
  <trip id="1091" depart="4.43" from="D4" to="D5" type="DEFAULT_VEHTYPE" fromTaz="taz92" toTaz="taz93" departLane="free" departSpeed="max"/>
  <trip id="187" depart="4.50" from="D2" to="D7" type="DEFAULT_VEHTYPE" fromTaz="taz91" toTaz="taz94" departLane="free" departSpeed="max"/>
  <trip id="1092" depart="4.70" from="D4" to="D5" type="DEFAULT_VEHTYPE" fromTaz="taz92" toTaz="taz93" departLane="free" departSpeed="max"/>
  <trip id="2204" depart="4.75" from="D4" to="D7" type="DEFAULT_VEHTYPE" fromTaz="taz92" toTaz="taz94" departLane="free" departSpeed="max"/>
  <trip id="188" depart="4.83" from="D2" to="D7" type="DEFAULT_VEHTYPE" fromTaz="taz91" toTaz="taz94" departLane="free" departSpeed="max"/>
  <trip id="1093" depart="4.96" from="D4" to="D5" type="DEFAULT_VEHTYPE" fromTaz="taz92" toTaz="taz93" departLane="free" departSpeed="max"/>
  <trip id="2205" depart="5.16" from="D4" to="D7" type="DEFAULT_VEHTYPE" fromTaz="taz92" toTaz="taz94" departLane="free" departSpeed="max"/>
  <trip id="189" depart="5.16" from="D2" to="D7" type="DEFAULT_VEHTYPE" fromTaz="taz91" toTaz="taz94" departLane="free" departSpeed="max"/>
  <trip id="1094" depart="5.23" from="D4" to="D5" type="DEFAULT_VEHTYPE" fromTaz="taz92" toTaz="taz93" departLane="free" departSpeed="max"/>
  <trip id="190" depart="5.49" from="D2" to="D7" type="DEFAULT_VEHTYPE" fromTaz="taz91" toTaz="taz94" departLane="free" departSpeed="max"/>
  <trip id="1095" depart="5.50" from="D4" to="D5" type="DEFAULT_VEHTYPE" fromTaz="taz92" toTaz="taz93" departLane="free" departSpeed="max"/>
  <trip id="2206" depart="5.57" from="D4" to="D7" type="DEFAULT_VEHTYPE" fromTaz="taz92" toTaz="taz94" departLane="free" departSpeed="max"/>
  <trip id="1096" depart="5.77" from="D4" to="D5" type="DEFAULT_VEHTYPE" fromTaz="taz92" toTaz="taz93" departLane="free" departSpeed="max"/>
  <trip id="191" depart="5.83" from="D2" to="D7" type="DEFAULT_VEHTYPE" fromTaz="taz91" toTaz="taz94" departLane="free" departSpeed="max"/>
  <trip id="2207" depart="5.98" from="D4" to="D7" type="DEFAULT_VEHTYPE" fromTaz="taz92" toTaz="taz94" departLane="free" departSpeed="max"/>
  <trip id="3" depart="6.03" from="D2" to="D5" type="DEFAULT_VEHTYPE" fromTaz="taz91" toTaz="taz93" departLane="free" departSpeed="max"/>
  <trip id="1097" depart="6.04" from="D4" to="D5" type="DEFAULT_VEHTYPE" fromTaz="taz92" toTaz="taz93" departLane="free" departSpeed="max"/>
  <trip id="192" depart="6.16" from="D2" to="D7" type="DEFAULT_VEHTYPE" fromTaz="taz91" toTaz="taz94" departLane="free" departSpeed="max"/>
  <trip id="1098" depart="6.31" from="D4" to="D5" type="DEFAULT_VEHTYPE" fromTaz="taz92" toTaz="taz93" departLane="free" departSpeed="max"/>
  <trip id="2208" depart="6.40" from="D4" to="D7" type="DEFAULT_VEHTYPE" fromTaz="taz92" toTaz="taz94" departLane="free" departSpeed="max"/>
  <trip id="193" depart="6.49" from="D2" to="D7" type="DEFAULT_VEHTYPE" fromTaz="taz91" toTaz="taz94" departLane="free" departSpeed="max"/>
  <trip id="1099" depart="6.57" from="D4" to="D5" type="DEFAULT_VEHTYPE" fromTaz="taz92" toTaz="taz93" departLane="free" departSpeed="max"/>
  <trip id="2209" depart="6.81" from="D4" to="D7" type="DEFAULT_VEHTYPE" fromTaz="taz92" toTaz="taz94" departLane="free" departSpeed="max"/>
  <trip id="194" depart="6.83" from="D2" to="D7" type="DEFAULT_VEHTYPE" fromTaz="taz91" toTaz="taz94" departLane="free" departSpeed="max"/>
  <trip id="1100" depart="6.84" from="D4" to="D5" type="DEFAULT_VEHTYPE" fromTaz="taz92" toTaz="taz93" departLane="free" departSpeed="max"/>
  <trip id="1101" depart="7.11" from="D4" to="D5" type="DEFAULT_VEHTYPE" fromTaz="taz92" toTaz="taz93" departLane="free" departSpeed="max"/>
  <trip id="195" depart="7.16" from="D2" to="D7" type="DEFAULT_VEHTYPE" fromTaz="taz91" toTaz="taz94" departLane="free" departSpeed="max"/>
  <trip id="2210" depart="7.22" from="D4" to="D7" type="DEFAULT_VEHTYPE" fromTaz="taz92" toTaz="taz94" departLane="free" departSpeed="max"/>
  <trip id="1102" depart="7.38" from="D4" to="D5" type="DEFAULT_VEHTYPE" fromTaz="taz92" toTaz="taz93" departLane="free" departSpeed="max"/>
  <trip id="196" depart="7.49" from="D2" to="D7" type="DEFAULT_VEHTYPE" fromTaz="taz91" toTaz="taz94" departLane="free" departSpeed="max"/>
  <trip id="2211" depart="7.63" from="D4" to="D7" type="DEFAULT_VEHTYPE" fromTaz="taz92" toTaz="taz94" departLane="free" departSpeed="max"/>
  <trip id="1103" depart="7.65" from="D4" to="D5" type="DEFAULT_VEHTYPE" fromTaz="taz92" toTaz="taz93" departLane="free" departSpeed="max"/>
  <trip id="4" depart="7.76" from="D2" to="D5" type="DEFAULT_VEHTYPE" fromTaz="taz91" toTaz="taz93" departLane="free" departSpeed="max"/>
  <trip id="197" depart="7.82" from="D2" to="D7" type="DEFAULT_VEHTYPE" fromTaz="taz91" toTaz="taz94" departLane="free" departSpeed="max"/>
  <trip id="1104" depart="7.92" from="D4" to="D5" type="DEFAULT_VEHTYPE" fromTaz="taz92" toTaz="taz93" departLane="free" departSpeed="max"/>
  <trip id="2212" depart="8.05" from="D4" to="D7" type="DEFAULT_VEHTYPE" fromTaz="taz92" toTaz="taz94" departLane="free" departSpeed="max"/>
  <trip id="198" depart="8.16" from="D2" to="D7" type="DEFAULT_VEHTYPE" fromTaz="taz91" toTaz="taz94" departLane="free" departSpeed="max"/>
  <trip id="1105" depart="8.18" from="D4" to="D5" type="DEFAULT_VEHTYPE" fromTaz="taz92" toTaz="taz93" departLane="free" departSpeed="max"/>
  <trip id="1106" depart="8.45" from="D4" to="D5" type="DEFAULT_VEHTYPE" fromTaz="taz92" toTaz="taz93" departLane="free" departSpeed="max"/>
  <trip id="2213" depart="8.46" from="D4" to="D7" type="DEFAULT_VEHTYPE" fromTaz="taz92" toTaz="taz94" departLane="free" departSpeed="max"/>
  <trip id="199" depart="8.49" from="D2" to="D7" type="DEFAULT_VEHTYPE" fromTaz="taz91" toTaz="taz94" departLane="free" departSpeed="max"/>
  <trip id="1107" depart="8.72" from="D4" to="D5" type="DEFAULT_VEHTYPE" fromTaz="taz92" toTaz="taz93" departLane="free" departSpeed="max"/>
  <trip id="200" depart="8.82" from="D2" to="D7" type="DEFAULT_VEHTYPE" fromTaz="taz91" toTaz="taz94" departLane="free" departSpeed="max"/>
  <trip id="2214" depart="8.87" from="D4" to="D7" type="DEFAULT_VEHTYPE" fromTaz="taz92" toTaz="taz94" departLane="free" departSpeed="max"/>
  <trip id="1108" depart="8.99" from="D4" to="D5" type="DEFAULT_VEHTYPE" fromTaz="taz92" toTaz="taz93" departLane="free" departSpeed="max"/>
  <trip id="201" depart="9.16" from="D2" to="D7" type="DEFAULT_VEHTYPE" fromTaz="taz91" toTaz="taz94" departLane="free" departSpeed="max"/>
  <trip id="1109" depart="9.26" from="D4" to="D5" type="DEFAULT_VEHTYPE" fromTaz="taz92" toTaz="taz93" departLane="free" departSpeed="max"/>
  <trip id="2215" depart="9.28" from="D4" to="D7" type="DEFAULT_VEHTYPE" fromTaz="taz92" toTaz="taz94" departLane="free" departSpeed="max"/>
  <trip id="5" depart="9.48" from="D2" to="D5" type="DEFAULT_VEHTYPE" fromTaz="taz91" toTaz="taz93" departLane="free" departSpeed="max"/>
  <trip id="202" depart="9.49" from="D2" to="D7" type="DEFAULT_VEHTYPE" fromTaz="taz91" toTaz="taz94" departLane="free" departSpeed="max"/>
  <trip id="1110" depart="9.53" from="D4" to="D5" type="DEFAULT_VEHTYPE" fromTaz="taz92" toTaz="taz93" departLane="free" departSpeed="max"/>
  <trip id="2216" depart="9.70" from="D4" to="D7" type="DEFAULT_VEHTYPE" fromTaz="taz92" toTaz="taz94" departLane="free" departSpeed="max"/>
  <trip id="1111" depart="9.79" from="D4" to="D5" type="DEFAULT_VEHTYPE" fromTaz="taz92" toTaz="taz93" departLane="free" departSpeed="max"/>
  <trip id="203" depart="9.82" from="D2" to="D7" type="DEFAULT_VEHTYPE" fromTaz="taz91" toTaz="taz94" departLane="free" departSpeed="max"/>
  <trip id="1112" depart="10.06" from="D4" to="D5" type="DEFAULT_VEHTYPE" fromTaz="taz92" toTaz="taz93" departLane="free" departSpeed="max"/>
  <trip id="2217" depart="10.11" from="D4" to="D7" type="DEFAULT_VEHTYPE" fromTaz="taz92" toTaz="taz94" departLane="free" departSpeed="max"/>
  <trip id="204" depart="10.16" from="D2" to="D7" type="DEFAULT_VEHTYPE" fromTaz="taz91" toTaz="taz94" departLane="free" departSpeed="max"/>
  <trip id="1113" depart="10.33" from="D4" to="D5" type="DEFAULT_VEHTYPE" fromTaz="taz92" toTaz="taz93" departLane="free" departSpeed="max"/>
  <trip id="205" depart="10.49" from="D2" to="D7" type="DEFAULT_VEHTYPE" fromTaz="taz91" toTaz="taz94" departLane="free" departSpeed="max"/>
  <trip id="2218" depart="10.52" from="D4" to="D7" type="DEFAULT_VEHTYPE" fromTaz="taz92" toTaz="taz94" departLane="free" departSpeed="max"/>
  <trip id="1114" depart="10.60" from="D4" to="D5" type="DEFAULT_VEHTYPE" fromTaz="taz92" toTaz="taz93" departLane="free" departSpeed="max"/>
  <trip id="206" depart="10.82" from="D2" to="D7" type="DEFAULT_VEHTYPE" fromTaz="taz91" toTaz="taz94" departLane="free" departSpeed="max"/>
  <trip id="1115" depart="10.87" from="D4" to="D5" type="DEFAULT_VEHTYPE" fromTaz="taz92" toTaz="taz93" departLane="free" departSpeed="max"/>
  <trip id="2219" depart="10.94" from="D4" to="D7" type="DEFAULT_VEHTYPE" fromTaz="taz92" toTaz="taz94" departLane="free" departSpeed="max"/>
  <trip id="1116" depart="11.14" from="D4" to="D5" type="DEFAULT_VEHTYPE" fromTaz="taz92" toTaz="taz93" departLane="free" departSpeed="max"/>
  <trip id="207" depart="11.15" from="D2" to="D7" type="DEFAULT_VEHTYPE" fromTaz="taz91" toTaz="taz94" departLane="free" departSpeed="max"/>
  <trip id="6" depart="11.21" from="D2" to="D5" type="DEFAULT_VEHTYPE" fromTaz="taz91" toTaz="taz93" departLane="free" departSpeed="max"/>
  <trip id="2220" depart="11.35" from="D4" to="D7" type="DEFAULT_VEHTYPE" fromTaz="taz92" toTaz="taz94" departLane="free" departSpeed="max"/>
  <trip id="1117" depart="11.40" from="D4" to="D5" type="DEFAULT_VEHTYPE" fromTaz="taz92" toTaz="taz93" departLane="free" departSpeed="max"/>
  <trip id="208" depart="11.49" from="D2" to="D7" type="DEFAULT_VEHTYPE" fromTaz="taz91" toTaz="taz94" departLane="free" departSpeed="max"/>
  <trip id="1118" depart="11.67" from="D4" to="D5" type="DEFAULT_VEHTYPE" fromTaz="taz92" toTaz="taz93" departLane="free" departSpeed="max"/>
  <trip id="2221" depart="11.76" from="D4" to="D7" type="DEFAULT_VEHTYPE" fromTaz="taz92" toTaz="taz94" departLane="free" departSpeed="max"/>
  <trip id="209" depart="11.82" from="D2" to="D7" type="DEFAULT_VEHTYPE" fromTaz="taz91" toTaz="taz94" departLane="free" departSpeed="max"/>
  <trip id="1119" depart="11.94" from="D4" to="D5" type="DEFAULT_VEHTYPE" fromTaz="taz92" toTaz="taz93" departLane="free" departSpeed="max"/>
  <trip id="210" depart="12.15" from="D2" to="D7" type="DEFAULT_VEHTYPE" fromTaz="taz91" toTaz="taz94" departLane="free" departSpeed="max"/>
  <trip id="2222" depart="12.17" from="D4" to="D7" type="DEFAULT_VEHTYPE" fromTaz="taz92" toTaz="taz94" departLane="free" departSpeed="max"/>
  <trip id="1120" depart="12.21" from="D4" to="D5" type="DEFAULT_VEHTYPE" fromTaz="taz92" toTaz="taz93" departLane="free" departSpeed="max"/>
  <trip id="1121" depart="12.48" from="D4" to="D5" type="DEFAULT_VEHTYPE" fromTaz="taz92" toTaz="taz93" departLane="free" departSpeed="max"/>
  <trip id="211" depart="12.49" from="D2" to="D7" type="DEFAULT_VEHTYPE" fromTaz="taz91" toTaz="taz94" departLane="free" departSpeed="max"/>
  <trip id="2223" depart="12.59" from="D4" to="D7" type="DEFAULT_VEHTYPE" fromTaz="taz92" toTaz="taz94" departLane="free" departSpeed="max"/>
  <trip id="1122" depart="12.75" from="D4" to="D5" type="DEFAULT_VEHTYPE" fromTaz="taz92" toTaz="taz93" departLane="free" departSpeed="max"/>
  <trip id="212" depart="12.82" from="D2" to="D7" type="DEFAULT_VEHTYPE" fromTaz="taz91" toTaz="taz94" departLane="free" departSpeed="max"/>
  <trip id="7" depart="12.93" from="D2" to="D5" type="DEFAULT_VEHTYPE" fromTaz="taz91" toTaz="taz93" departLane="free" departSpeed="max"/>
  <trip id="2224" depart="13.00" from="D4" to="D7" type="DEFAULT_VEHTYPE" fromTaz="taz92" toTaz="taz94" departLane="free" departSpeed="max"/>
  <trip id="1123" depart="13.01" from="D4" to="D5" type="DEFAULT_VEHTYPE" fromTaz="taz92" toTaz="taz93" departLane="free" departSpeed="max"/>
  <trip id="213" depart="13.15" from="D2" to="D7" type="DEFAULT_VEHTYPE" fromTaz="taz91" toTaz="taz94" departLane="free" departSpeed="max"/>
  <trip id="1124" depart="13.28" from="D4" to="D5" type="DEFAULT_VEHTYPE" fromTaz="taz92" toTaz="taz93" departLane="free" departSpeed="max"/>
  <trip id="2225" depart="13.41" from="D4" to="D7" type="DEFAULT_VEHTYPE" fromTaz="taz92" toTaz="taz94" departLane="free" departSpeed="max"/>
  <trip id="214" depart="13.49" from="D2" to="D7" type="DEFAULT_VEHTYPE" fromTaz="taz91" toTaz="taz94" departLane="free" departSpeed="max"/>
  <trip id="1125" depart="13.55" from="D4" to="D5" type="DEFAULT_VEHTYPE" fromTaz="taz92" toTaz="taz93" departLane="free" departSpeed="max"/>
  <trip id="2226" depart="13.82" from="D4" to="D7" type="DEFAULT_VEHTYPE" fromTaz="taz92" toTaz="taz94" departLane="free" departSpeed="max"/>
  <trip id="215" depart="13.82" from="D2" to="D7" type="DEFAULT_VEHTYPE" fromTaz="taz91" toTaz="taz94" departLane="free" departSpeed="max"/>
  <trip id="1126" depart="13.82" from="D4" to="D5" type="DEFAULT_VEHTYPE" fromTaz="taz92" toTaz="taz93" departLane="free" departSpeed="max"/>
  <trip id="1127" depart="14.09" from="D4" to="D5" type="DEFAULT_VEHTYPE" fromTaz="taz92" toTaz="taz93" departLane="free" departSpeed="max"/>
  <trip id="216" depart="14.15" from="D2" to="D7" type="DEFAULT_VEHTYPE" fromTaz="taz91" toTaz="taz94" departLane="free" departSpeed="max"/>
  <trip id="2227" depart="14.24" from="D4" to="D7" type="DEFAULT_VEHTYPE" fromTaz="taz92" toTaz="taz94" departLane="free" departSpeed="max"/>
  <trip id="1128" depart="14.36" from="D4" to="D5" type="DEFAULT_VEHTYPE" fromTaz="taz92" toTaz="taz93" departLane="free" departSpeed="max"/>
  <trip id="217" depart="14.48" from="D2" to="D7" type="DEFAULT_VEHTYPE" fromTaz="taz91" toTaz="taz94" departLane="free" departSpeed="max"/>
  <trip id="1129" depart="14.62" from="D4" to="D5" type="DEFAULT_VEHTYPE" fromTaz="taz92" toTaz="taz93" departLane="free" departSpeed="max"/>
  <trip id="2228" depart="14.65" from="D4" to="D7" type="DEFAULT_VEHTYPE" fromTaz="taz92" toTaz="taz94" departLane="free" departSpeed="max"/>
  <trip id="8" depart="14.66" from="D2" to="D5" type="DEFAULT_VEHTYPE" fromTaz="taz91" toTaz="taz93" departLane="free" departSpeed="max"/>
  <trip id="218" depart="14.82" from="D2" to="D7" type="DEFAULT_VEHTYPE" fromTaz="taz91" toTaz="taz94" departLane="free" departSpeed="max"/>
  <trip id="1130" depart="14.89" from="D4" to="D5" type="DEFAULT_VEHTYPE" fromTaz="taz92" toTaz="taz93" departLane="free" departSpeed="max"/>
  <trip id="2229" depart="15.06" from="D4" to="D7" type="DEFAULT_VEHTYPE" fromTaz="taz92" toTaz="taz94" departLane="free" departSpeed="max"/>
  <trip id="219" depart="15.15" from="D2" to="D7" type="DEFAULT_VEHTYPE" fromTaz="taz91" toTaz="taz94" departLane="free" departSpeed="max"/>
  <trip id="1131" depart="15.16" from="D4" to="D5" type="DEFAULT_VEHTYPE" fromTaz="taz92" toTaz="taz93" departLane="free" departSpeed="max"/>
  <trip id="1132" depart="15.43" from="D4" to="D5" type="DEFAULT_VEHTYPE" fromTaz="taz92" toTaz="taz93" departLane="free" departSpeed="max"/>
  <trip id="2230" depart="15.47" from="D4" to="D7" type="DEFAULT_VEHTYPE" fromTaz="taz92" toTaz="taz94" departLane="free" departSpeed="max"/>
  <trip id="220" depart="15.48" from="D2" to="D7" type="DEFAULT_VEHTYPE" fromTaz="taz91" toTaz="taz94" departLane="free" departSpeed="max"/>
  <trip id="1133" depart="15.70" from="D4" to="D5" type="DEFAULT_VEHTYPE" fromTaz="taz92" toTaz="taz93" departLane="free" departSpeed="max"/>
  <trip id="221" depart="15.82" from="D2" to="D7" type="DEFAULT_VEHTYPE" fromTaz="taz91" toTaz="taz94" departLane="free" departSpeed="max"/>
  <trip id="2231" depart="15.89" from="D4" to="D7" type="DEFAULT_VEHTYPE" fromTaz="taz92" toTaz="taz94" departLane="free" departSpeed="max"/>
  <trip id="1134" depart="15.97" from="D4" to="D5" type="DEFAULT_VEHTYPE" fromTaz="taz92" toTaz="taz93" departLane="free" departSpeed="max"/>
  <trip id="222" depart="16.15" from="D2" to="D7" type="DEFAULT_VEHTYPE" fromTaz="taz91" toTaz="taz94" departLane="free" departSpeed="max"/>
  <trip id="1135" depart="16.23" from="D4" to="D5" type="DEFAULT_VEHTYPE" fromTaz="taz92" toTaz="taz93" departLane="free" departSpeed="max"/>
  <trip id="2232" depart="16.30" from="D4" to="D7" type="DEFAULT_VEHTYPE" fromTaz="taz92" toTaz="taz94" departLane="free" departSpeed="max"/>
  <trip id="9" depart="16.38" from="D2" to="D5" type="DEFAULT_VEHTYPE" fromTaz="taz91" toTaz="taz93" departLane="free" departSpeed="max"/>
  <trip id="223" depart="16.48" from="D2" to="D7" type="DEFAULT_VEHTYPE" fromTaz="taz91" toTaz="taz94" departLane="free" departSpeed="max"/>
  <trip id="1136" depart="16.50" from="D4" to="D5" type="DEFAULT_VEHTYPE" fromTaz="taz92" toTaz="taz93" departLane="free" departSpeed="max"/>
  <trip id="2233" depart="16.71" from="D4" to="D7" type="DEFAULT_VEHTYPE" fromTaz="taz92" toTaz="taz94" departLane="free" departSpeed="max"/>
  <trip id="1137" depart="16.77" from="D4" to="D5" type="DEFAULT_VEHTYPE" fromTaz="taz92" toTaz="taz93" departLane="free" departSpeed="max"/>
  <trip id="224" depart="16.81" from="D2" to="D7" type="DEFAULT_VEHTYPE" fromTaz="taz91" toTaz="taz94" departLane="free" departSpeed="max"/>
  <trip id="1138" depart="17.04" from="D4" to="D5" type="DEFAULT_VEHTYPE" fromTaz="taz92" toTaz="taz93" departLane="free" departSpeed="max"/>
  <trip id="2234" depart="17.13" from="D4" to="D7" type="DEFAULT_VEHTYPE" fromTaz="taz92" toTaz="taz94" departLane="free" departSpeed="max"/>
  <trip id="225" depart="17.15" from="D2" to="D7" type="DEFAULT_VEHTYPE" fromTaz="taz91" toTaz="taz94" departLane="free" departSpeed="max"/>
  <trip id="1139" depart="17.31" from="D4" to="D5" type="DEFAULT_VEHTYPE" fromTaz="taz92" toTaz="taz93" departLane="free" departSpeed="max"/>
  <trip id="226" depart="17.48" from="D2" to="D7" type="DEFAULT_VEHTYPE" fromTaz="taz91" toTaz="taz94" departLane="free" departSpeed="max"/>
  <trip id="2235" depart="17.54" from="D4" to="D7" type="DEFAULT_VEHTYPE" fromTaz="taz92" toTaz="taz94" departLane="free" departSpeed="max"/>
  <trip id="1140" depart="17.58" from="D4" to="D5" type="DEFAULT_VEHTYPE" fromTaz="taz92" toTaz="taz93" departLane="free" departSpeed="max"/>
  <trip id="227" depart="17.81" from="D2" to="D7" type="DEFAULT_VEHTYPE" fromTaz="taz91" toTaz="taz94" departLane="free" departSpeed="max"/>
  <trip id="1141" depart="17.84" from="D4" to="D5" type="DEFAULT_VEHTYPE" fromTaz="taz92" toTaz="taz93" departLane="free" departSpeed="max"/>
  <trip id="2236" depart="17.95" from="D4" to="D7" type="DEFAULT_VEHTYPE" fromTaz="taz92" toTaz="taz94" departLane="free" departSpeed="max"/>
  <trip id="10" depart="18.10" from="D2" to="D5" type="DEFAULT_VEHTYPE" fromTaz="taz91" toTaz="taz93" departLane="free" departSpeed="max"/>
  <trip id="1142" depart="18.11" from="D4" to="D5" type="DEFAULT_VEHTYPE" fromTaz="taz92" toTaz="taz93" departLane="free" departSpeed="max"/>
  <trip id="228" depart="18.15" from="D2" to="D7" type="DEFAULT_VEHTYPE" fromTaz="taz91" toTaz="taz94" departLane="free" departSpeed="max"/>
  <trip id="2237" depart="18.36" from="D4" to="D7" type="DEFAULT_VEHTYPE" fromTaz="taz92" toTaz="taz94" departLane="free" departSpeed="max"/>
  <trip id="1143" depart="18.38" from="D4" to="D5" type="DEFAULT_VEHTYPE" fromTaz="taz92" toTaz="taz93" departLane="free" departSpeed="max"/>
  <trip id="229" depart="18.48" from="D2" to="D7" type="DEFAULT_VEHTYPE" fromTaz="taz91" toTaz="taz94" departLane="free" departSpeed="max"/>
  <trip id="1144" depart="18.65" from="D4" to="D5" type="DEFAULT_VEHTYPE" fromTaz="taz92" toTaz="taz93" departLane="free" departSpeed="max"/>
  <trip id="2238" depart="18.78" from="D4" to="D7" type="DEFAULT_VEHTYPE" fromTaz="taz92" toTaz="taz94" departLane="free" departSpeed="max"/>
  <trip id="230" depart="18.81" from="D2" to="D7" type="DEFAULT_VEHTYPE" fromTaz="taz91" toTaz="taz94" departLane="free" departSpeed="max"/>
  <trip id="1145" depart="18.92" from="D4" to="D5" type="DEFAULT_VEHTYPE" fromTaz="taz92" toTaz="taz93" departLane="free" departSpeed="max"/>
  <trip id="231" depart="19.15" from="D2" to="D7" type="DEFAULT_VEHTYPE" fromTaz="taz91" toTaz="taz94" departLane="free" departSpeed="max"/>
  <trip id="2239" depart="19.19" from="D4" to="D7" type="DEFAULT_VEHTYPE" fromTaz="taz92" toTaz="taz94" departLane="free" departSpeed="max"/>
  <trip id="1146" depart="19.19" from="D4" to="D5" type="DEFAULT_VEHTYPE" fromTaz="taz92" toTaz="taz93" departLane="free" departSpeed="max"/>
  <trip id="1147" depart="19.45" from="D4" to="D5" type="DEFAULT_VEHTYPE" fromTaz="taz92" toTaz="taz93" departLane="free" departSpeed="max"/>
  <trip id="232" depart="19.48" from="D2" to="D7" type="DEFAULT_VEHTYPE" fromTaz="taz91" toTaz="taz94" departLane="free" departSpeed="max"/>
  <trip id="2240" depart="19.60" from="D4" to="D7" type="DEFAULT_VEHTYPE" fromTaz="taz92" toTaz="taz94" departLane="free" departSpeed="max"/>
  <trip id="1148" depart="19.72" from="D4" to="D5" type="DEFAULT_VEHTYPE" fromTaz="taz92" toTaz="taz93" departLane="free" departSpeed="max"/>
  <trip id="233" depart="19.81" from="D2" to="D7" type="DEFAULT_VEHTYPE" fromTaz="taz91" toTaz="taz94" departLane="free" departSpeed="max"/>
  <trip id="11" depart="19.83" from="D2" to="D5" type="DEFAULT_VEHTYPE" fromTaz="taz91" toTaz="taz93" departLane="free" departSpeed="max"/>
  <trip id="1149" depart="19.99" from="D4" to="D5" type="DEFAULT_VEHTYPE" fromTaz="taz92" toTaz="taz93" departLane="free" departSpeed="max"/>
  <trip id="2241" depart="20.01" from="D4" to="D7" type="DEFAULT_VEHTYPE" fromTaz="taz92" toTaz="taz94" departLane="free" departSpeed="max"/>
  <trip id="234" depart="20.14" from="D2" to="D7" type="DEFAULT_VEHTYPE" fromTaz="taz91" toTaz="taz94" departLane="free" departSpeed="max"/>
  <trip id="1150" depart="20.26" from="D4" to="D5" type="DEFAULT_VEHTYPE" fromTaz="taz92" toTaz="taz93" departLane="free" departSpeed="max"/>
  <trip id="2242" depart="20.43" from="D4" to="D7" type="DEFAULT_VEHTYPE" fromTaz="taz92" toTaz="taz94" departLane="free" departSpeed="max"/>
  <trip id="235" depart="20.48" from="D2" to="D7" type="DEFAULT_VEHTYPE" fromTaz="taz91" toTaz="taz94" departLane="free" departSpeed="max"/>
  <trip id="1151" depart="20.53" from="D4" to="D5" type="DEFAULT_VEHTYPE" fromTaz="taz92" toTaz="taz93" departLane="free" departSpeed="max"/>
  <trip id="1152" depart="20.80" from="D4" to="D5" type="DEFAULT_VEHTYPE" fromTaz="taz92" toTaz="taz93" departLane="free" departSpeed="max"/>
  <trip id="236" depart="20.81" from="D2" to="D7" type="DEFAULT_VEHTYPE" fromTaz="taz91" toTaz="taz94" departLane="free" departSpeed="max"/>
  <trip id="2243" depart="20.84" from="D4" to="D7" type="DEFAULT_VEHTYPE" fromTaz="taz92" toTaz="taz94" departLane="free" departSpeed="max"/>
  <trip id="1153" depart="21.06" from="D4" to="D5" type="DEFAULT_VEHTYPE" fromTaz="taz92" toTaz="taz93" departLane="free" departSpeed="max"/>
  <trip id="237" depart="21.14" from="D2" to="D7" type="DEFAULT_VEHTYPE" fromTaz="taz91" toTaz="taz94" departLane="free" departSpeed="max"/>
  <trip id="2244" depart="21.25" from="D4" to="D7" type="DEFAULT_VEHTYPE" fromTaz="taz92" toTaz="taz94" departLane="free" departSpeed="max"/>
  <trip id="1154" depart="21.33" from="D4" to="D5" type="DEFAULT_VEHTYPE" fromTaz="taz92" toTaz="taz93" departLane="free" departSpeed="max"/>
  <trip id="238" depart="21.48" from="D2" to="D7" type="DEFAULT_VEHTYPE" fromTaz="taz91" toTaz="taz94" departLane="free" departSpeed="max"/>
  <trip id="12" depart="21.55" from="D2" to="D5" type="DEFAULT_VEHTYPE" fromTaz="taz91" toTaz="taz93" departLane="free" departSpeed="max"/>
  <trip id="1155" depart="21.60" from="D4" to="D5" type="DEFAULT_VEHTYPE" fromTaz="taz92" toTaz="taz93" departLane="free" departSpeed="max"/>
  <trip id="2245" depart="21.66" from="D4" to="D7" type="DEFAULT_VEHTYPE" fromTaz="taz92" toTaz="taz94" departLane="free" departSpeed="max"/>