<?xml version='1.0' encoding='utf-8'?>
<routes>
  <trip id="1813" depart="0.16" from="D4" to="D7" type="DEFAULT_VEHTYPE" fromTaz="taz92" toTaz="taz94" departLane="free" departSpeed="max"/>
  <trip id="1013" depart="0.19" from="D4" to="D5" type="DEFAULT_VEHTYPE" fromTaz="taz92" toTaz="taz93" departLane="free" departSpeed="max"/>
  <trip id="0" depart="0.27" from="D2" to="D5" type="DEFAULT_VEHTYPE" fromTaz="taz91" toTaz="taz93" departLane="free" departSpeed="max"/>
  <trip id="566" depart="0.34" from="D2" to="D7" type="DEFAULT_VEHTYPE" fromTaz="taz91" toTaz="taz94" departLane="free" departSpeed="max"/>
  <trip id="1814" depart="0.47" from="D4" to="D7" type="DEFAULT_VEHTYPE" fromTaz="taz92" toTaz="taz94" departLane="free" departSpeed="max"/>
  <trip id="1014" depart="0.56" from="D4" to="D5" type="DEFAULT_VEHTYPE" fromTaz="taz92" toTaz="taz93" departLane="free" departSpeed="max"/>
  <trip id="1815" depart="0.78" from="D4" to="D7" type="DEFAULT_VEHTYPE" fromTaz="taz92" toTaz="taz94" departLane="free" departSpeed="max"/>
  <trip id="1" depart="0.80" from="D2" to="D5" type="DEFAULT_VEHTYPE" fromTaz="taz91" toTaz="taz93" departLane="free" departSpeed="max"/>
  <trip id="1015" depart="0.94" from="D4" to="D5" type="DEFAULT_VEHTYPE" fromTaz="taz92" toTaz="taz93" departLane="free" departSpeed="max"/>
  <trip id="567" depart="1.01" from="D2" to="D7" type="DEFAULT_VEHTYPE" fromTaz="taz91" toTaz="taz94" departLane="free" departSpeed="max"/>
  <trip id="1816" depart="1.09" from="D4" to="D7" type="DEFAULT_VEHTYPE" fromTaz="taz92" toTaz="taz94" departLane="free" departSpeed="max"/>
  <trip id="1016" depart="1.31" from="D4" to="D5" type="DEFAULT_VEHTYPE" fromTaz="taz92" toTaz="taz93" departLane="free" departSpeed="max"/>
  <trip id="2" depart="1.33" from="D2" to="D5" type="DEFAULT_VEHTYPE" fromTaz="taz91" toTaz="taz93" departLane="free" departSpeed="max"/>
  <trip id="1817" depart="1.40" from="D4" to="D7" type="DEFAULT_VEHTYPE" fromTaz="taz92" toTaz="taz94" departLane="free" departSpeed="max"/>
  <trip id="568" depart="1.68" from="D2" to="D7" type="DEFAULT_VEHTYPE" fromTaz="taz91" toTaz="taz94" departLane="free" departSpeed="max"/>
  <trip id="1017" depart="1.69" from="D4" to="D5" type="DEFAULT_VEHTYPE" fromTaz="taz92" toTaz="taz93" departLane="free" departSpeed="max"/>
  <trip id="1818" depart="1.71" from="D4" to="D7" type="DEFAULT_VEHTYPE" fromTaz="taz92" toTaz="taz94" departLane="free" departSpeed="max"/>
  <trip id="3" depart="1.86" from="D2" to="D5" type="DEFAULT_VEHTYPE" fromTaz="taz91" toTaz="taz93" departLane="free" departSpeed="max"/>
  <trip id="1819" depart="2.02" from="D4" to="D7" type="DEFAULT_VEHTYPE" fromTaz="taz92" toTaz="taz94" departLane="free" departSpeed="max"/>
  <trip id="1018" depart="2.06" from="D4" to="D5" type="DEFAULT_VEHTYPE" fromTaz="taz92" toTaz="taz93" departLane="free" departSpeed="max"/>
  <trip id="1820" depart="2.33" from="D4" to="D7" type="DEFAULT_VEHTYPE" fromTaz="taz92" toTaz="taz94" departLane="free" departSpeed="max"/>
  <trip id="569" depart="2.35" from="D2" to="D7" type="DEFAULT_VEHTYPE" fromTaz="taz91" toTaz="taz94" departLane="free" departSpeed="max"/>
  <trip id="4" depart="2.39" from="D2" to="D5" type="DEFAULT_VEHTYPE" fromTaz="taz91" toTaz="taz93" departLane="free" departSpeed="max"/>
  <trip id="1019" depart="2.44" from="D4" to="D5" type="DEFAULT_VEHTYPE" fromTaz="taz92" toTaz="taz93" departLane="free" departSpeed="max"/>
  <trip id="1821" depart="2.64" from="D4" to="D7" type="DEFAULT_VEHTYPE" fromTaz="taz92" toTaz="taz94" departLane="free" departSpeed="max"/>
  <trip id="1020" depart="2.81" from="D4" to="D5" type="DEFAULT_VEHTYPE" fromTaz="taz92" toTaz="taz93" departLane="free" departSpeed="max"/>
  <trip id="5" depart="2.92" from="D2" to="D5" type="DEFAULT_VEHTYPE" fromTaz="taz91" toTaz="taz93" departLane="free" departSpeed="max"/>
  <trip id="1822" depart="2.95" from="D4" to="D7" type="DEFAULT_VEHTYPE" fromTaz="taz92" toTaz="taz94" departLane="free" departSpeed="max"/>
  <trip id="570" depart="3.02" from="D2" to="D7" type="DEFAULT_VEHTYPE" fromTaz="taz91" toTaz="taz94" departLane="free" departSpeed="max"/>
  <trip id="1021" depart="3.19" from="D4" to="D5" type="DEFAULT_VEHTYPE" fromTaz="taz92" toTaz="taz93" departLane="free" departSpeed="max"/>
  <trip id="1823" depart="3.26" from="D4" to="D7" type="DEFAULT_VEHTYPE" fromTaz="taz92" toTaz="taz94" departLane="free" departSpeed="max"/>
  <trip id="6" depart="3.45" from="D2" to="D5" type="DEFAULT_VEHTYPE" fromTaz="taz91" toTaz="taz93" departLane="free" departSpeed="max"/>
  <trip id="1022" depart="3.56" from="D4" to="D5" type="DEFAULT_VEHTYPE" fromTaz="taz92" toTaz="taz93" departLane="free" departSpeed="max"/>
  <trip id="1824" depart="3.57" from="D4" to="D7" type="DEFAULT_VEHTYPE" fromTaz="taz92" toTaz="taz94" departLane="free" departSpeed="max"/>
  <trip id="571" depart="3.69" from="D2" to="D7" type="DEFAULT_VEHTYPE" fromTaz="taz91" toTaz="taz94" departLane="free" departSpeed="max"/>
  <trip id="1825" depart="3.88" from="D4" to="D7" type="DEFAULT_VEHTYPE" fromTaz="taz92" toTaz="taz94" departLane="free" departSpeed="max"/>
  <trip id="1023" depart="3.94" from="D4" to="D5" type="DEFAULT_VEHTYPE" fromTaz="taz92" toTaz="taz93" departLane="free" departSpeed="max"/>
  <trip id="7" depart="3.98" from="D2" to="D5" type="DEFAULT_VEHTYPE" fromTaz="taz91" toTaz="taz93" departLane="free" departSpeed="max"/>
  <trip id="1826" depart="4.19" from="D4" to="D7" type="DEFAULT_VEHTYPE" fromTaz="taz92" toTaz="taz94" departLane="free" departSpeed="max"/>
  <trip id="1024" depart="4.31" from="D4" to="D5" type="DEFAULT_VEHTYPE" fromTaz="taz92" toTaz="taz93" departLane="free" departSpeed="max"/>
  <trip id="572" depart="4.36" from="D2" to="D7" type="DEFAULT_VEHTYPE" fromTaz="taz91" toTaz="taz94" departLane="free" departSpeed="max"/>
  <trip id="1827" depart="4.50" from="D4" to="D7" type="DEFAULT_VEHTYPE" fromTaz="taz92" toTaz="taz94" departLane="free" departSpeed="max"/>
  <trip id="8" depart="4.51" from="D2" to="D5" type="DEFAULT_VEHTYPE" fromTaz="taz91" toTaz="taz93" departLane="free" departSpeed="max"/>
  <trip id="1025" depart="4.69" from="D4" to="D5" type="DEFAULT_VEHTYPE" fromTaz="taz92" toTaz="taz93" departLane="free" departSpeed="max"/>
  <trip id="1828" depart="4.81" from="D4" to="D7" type="DEFAULT_VEHTYPE" fromTaz="taz92" toTaz="taz94" departLane="free" departSpeed="max"/>
  <trip id="573" depart="5.03" from="D2" to="D7" type="DEFAULT_VEHTYPE" fromTaz="taz91" toTaz="taz94" departLane="free" departSpeed="max"/>
  <trip id="9" depart="5.04" from="D2" to="D5" type="DEFAULT_VEHTYPE" fromTaz="taz91" toTaz="taz93" departLane="free" departSpeed="max"/>
  <trip id="1026" depart="5.06" from="D4" to="D5" type="DEFAULT_VEHTYPE" fromTaz="taz92" toTaz="taz93" departLane="free" departSpeed="max"/>
  <trip id="1829" depart="5.12" from="D4" to="D7" type="DEFAULT_VEHTYPE" fromTaz="taz92" toTaz="taz94" departLane="free" departSpeed="max"/>
  <trip id="1830" depart="5.43" from="D4" to="D7" type="DEFAULT_VEHTYPE" fromTaz="taz92" toTaz="taz94" departLane="free" departSpeed="max"/>
  <trip id="1027" depart="5.44" from="D4" to="D5" type="DEFAULT_VEHTYPE" fromTaz="taz92" toTaz="taz93" departLane="free" departSpeed="max"/>
  <trip id="10" depart="5.57" from="D2" to="D5" type="DEFAULT_VEHTYPE" fromTaz="taz91" toTaz="taz93" departLane="free" departSpeed="max"/>
  <trip id="574" depart="5.70" from="D2" to="D7" type="DEFAULT_VEHTYPE" fromTaz="taz91" toTaz="taz94" departLane="free" departSpeed="max"/>
  <trip id="1831" depart="5.75" from="D4" to="D7" type="DEFAULT_VEHTYPE" fromTaz="taz92" toTaz="taz94" departLane="free" departSpeed="max"/>
  <trip id="1028" depart="5.81" from="D4" to="D5" type="DEFAULT_VEHTYPE" fromTaz="taz92" toTaz="taz93" departLane="free" departSpeed="max"/>
  <trip id="1832" depart="6.06" from="D4" to="D7" type="DEFAULT_VEHTYPE" fromTaz="taz92" toTaz="taz94" departLane="free" departSpeed="max"/>
  <trip id="11" depart="6.10" from="D2" to="D5" type="DEFAULT_VEHTYPE" fromTaz="taz91" toTaz="taz93" departLane="free" departSpeed="max"/>
  <trip id="1029" depart="6.19" from="D4" to="D5" type="DEFAULT_VEHTYPE" fromTaz="taz92" toTaz="taz93" departLane="free" departSpeed="max"/>
  <trip id="1833" depart="6.37" from="D4" to="D7" type="DEFAULT_VEHTYPE" fromTaz="taz92" toTaz="taz94" departLane="free" departSpeed="max"/>
  <trip id="575" depart="6.38" from="D2" to="D7" type="DEFAULT_VEHTYPE" fromTaz="taz91" toTaz="taz94" departLane="free" departSpeed="max"/>
  <trip id="1030" depart="6.56" from="D4" to="D5" type="DEFAULT_VEHTYPE" fromTaz="taz92" toTaz="taz93" departLane="free" departSpeed="max"/>
  <trip id="12" depart="6.63" from="D2" to="D5" type="DEFAULT_VEHTYPE" fromTaz="taz91" toTaz="taz93" departLane="free" departSpeed="max"/>
  <trip id="1834" depart="6.68" from="D4" to="D7" type="DEFAULT_VEHTYPE" fromTaz="taz92" toTaz="taz94" departLane="free" departSpeed="max"/>
  <trip id="1031" depart="6.94" from="D4" to="D5" type="DEFAULT_VEHTYPE" fromTaz="taz92" toTaz="taz93" departLane="free" departSpeed="max"/>
  <trip id="1835" depart="6.99" from="D4" to="D7" type="DEFAULT_VEHTYPE" fromTaz="taz92" toTaz="taz94" departLane="free" departSpeed="max"/>
  <trip id="576" depart="7.05" from="D2" to="D7" type="DEFAULT_VEHTYPE" fromTaz="taz91" toTaz="taz94" departLane="free" departSpeed="max"/>
  <trip id="13" depart="7.16" from="D2" to="D5" type="DEFAULT_VEHTYPE" fromTaz="taz91" toTaz="taz93" departLane="free" departSpeed="max"/>
  <trip id="1836" depart="7.30" from="D4" to="D7" type="DEFAULT_VEHTYPE" fromTaz="taz92" toTaz="taz94" departLane="free" departSpeed="max"/>
  <trip id="1032" depart="7.31" from="D4" to="D5" type="DEFAULT_VEHTYPE" fromTaz="taz92" toTaz="taz93" departLane="free" departSpeed="max"/>
  <trip id="1837" depart="7.61" from="D4" to="D7" type="DEFAULT_VEHTYPE" fromTaz="taz92" toTaz="taz94" departLane="free" departSpeed="max"/>
  <trip id="14" depart="7.69" from="D2" to="D5" type="DEFAULT_VEHTYPE" fromTaz="taz91" toTaz="taz93" departLane="free" departSpeed="max"/>
  <trip id="1033" depart="7.69" from="D4" to="D5" type="DEFAULT_VEHTYPE" fromTaz="taz92" toTaz="taz93" departLane="free" departSpeed="max"/>
  <trip id="577" depart="7.72" from="D2" to="D7" type="DEFAULT_VEHTYPE" fromTaz="taz91" toTaz="taz94" departLane="free" departSpeed="max"/>
  <trip id="1838" depart="7.92" from="D4" to="D7" type="DEFAULT_VEHTYPE" fromTaz="taz92" toTaz="taz94" departLane="free" departSpeed="max"/>
  <trip id="1034" depart="8.06" from="D4" to="D5" type="DEFAULT_VEHTYPE" fromTaz="taz92" toTaz="taz93" departLane="free" departSpeed="max"/>
  <trip id="15" depart="8.22" from="D2" to="D5" type="DEFAULT_VEHTYPE" fromTaz="taz91" toTaz="taz93" departLane="free" departSpeed="max"/>
  <trip id="1839" depart="8.23" from="D4" to="D7" type="DEFAULT_VEHTYPE" fromTaz="taz92" toTaz="taz94" departLane="free" departSpeed="max"/>
  <trip id="578" depart="8.39" from="D2" to="D7" type="DEFAULT_VEHTYPE" fromTaz="taz91" toTaz="taz94" departLane="free" departSpeed="max"/>
  <trip id="1035" depart="8.44" from="D4" to="D5" type="DEFAULT_VEHTYPE" fromTaz="taz92" toTaz="taz93" departLane="free" departSpeed="max"/>
  <trip id="1840" depart="8.54" from="D4" to="D7" type="DEFAULT_VEHTYPE" fromTaz="taz92" toTaz="taz94" departLane="free" departSpeed="max"/>
  <trip id="16" depart="8.75" from="D2" to="D5" type="DEFAULT_VEHTYPE" fromTaz="taz91" toTaz="taz93" departLane="free" departSpeed="max"/>
  <trip id="1036" depart="8.81" from="D4" to="D5" type="DEFAULT_VEHTYPE" fromTaz="taz92" toTaz="taz93" departLane="free" departSpeed="max"/>
  <trip id="1841" depart="8.85" from="D4" to="D7" type="DEFAULT_VEHTYPE" fromTaz="taz92" toTaz="taz94" departLane="free" departSpeed="max"/>
  <trip id="579" depart="9.06" from="D2" to="D7" type="DEFAULT_VEHTYPE" fromTaz="taz91" toTaz="taz94" departLane="free" departSpeed="max"/>
  <trip id="1842" depart="9.16" from="D4" to="D7" type="DEFAULT_VEHTYPE" fromTaz="taz92" toTaz="taz94" departLane="free" departSpeed="max"/>
  <trip id="1037" depart="9.19" from="D4" to="D5" type="DEFAULT_VEHTYPE" fromTaz="taz92" toTaz="taz93" departLane="free" departSpeed="max"/>
  <trip id="17" depart="9.28" from="D2" to="D5" type="DEFAULT_VEHTYPE" fromTaz="taz91" toTaz="taz93" departLane="free" departSpeed="max"/>
  <trip id="1843" depart="9.47" from="D4" to="D7" type="DEFAULT_VEHTYPE" fromTaz="taz92" toTaz="taz94" departLane="free" departSpeed="max"/>
  <trip id="1038" depart="9.56" from="D4" to="D5" type="DEFAULT_VEHTYPE" fromTaz="taz92" toTaz="taz93" departLane="free" departSpeed="max"/>
  <trip id="580" depart="9.73" from="D2" to="D7" type="DEFAULT_VEHTYPE" fromTaz="taz91" toTaz="taz94" departLane="free" departSpeed="max"/>
  <trip id="1844" depart="9.78" from="D4" to="D7" type="DEFAULT_VEHTYPE" fromTaz="taz92" toTaz="taz94" departLane="free" departSpeed="max"/>
  <trip id="18" depart="9.81" from="D2" to="D5" type="DEFAULT_VEHTYPE" fromTaz="taz91" toTaz="taz93" departLane="free" departSpeed="max"/>
  <trip id="1039" depart="9.94" from="D4" to="D5" type="DEFAULT_VEHTYPE" fromTaz="taz92" toTaz="taz93" departLane="free" departSpeed="max"/>
  <trip id="1845" depart="10.09" from="D4" to="D7" type="DEFAULT_VEHTYPE" fromTaz="taz92" toTaz="taz94" departLane="free" departSpeed="max"/>
  <trip id="1040" depart="10.31" from="D4" to="D5" type="DEFAULT_VEHTYPE" fromTaz="taz92" toTaz="taz93" departLane="free" departSpeed="max"/>
  <trip id="19" depart="10.34" from="D2" to="D5" type="DEFAULT_VEHTYPE" fromTaz="taz91" toTaz="taz93" departLane="free" departSpeed="max"/>
  <trip id="581" depart="10.40" from="D2" to="D7" type="DEFAULT_VEHTYPE" fromTaz="taz91" toTaz="taz94" departLane="free" departSpeed="max"/>
  <trip id="1846" depart="10.40" from="D4" to="D7" type="DEFAULT_VEHTYPE" fromTaz="taz92" toTaz="taz94" departLane="free" departSpeed="max"/>
  <trip id="1041" depart="10.69" from="D4" to="D5" type="DEFAULT_VEHTYPE" fromTaz="taz92" toTaz="taz93" departLane="free" departSpeed="max"/>
  <trip id="1847" depart="10.71" from="D4" to="D7" type="DEFAULT_VEHTYPE" fromTaz="taz92" toTaz="taz94" departLane="free" departSpeed="max"/>
  <trip id="20" depart="10.87" from="D2" to="D5" type="DEFAULT_VEHTYPE" fromTaz="taz91" toTaz="taz93" departLane="free" departSpeed="max"/>
  <trip id="1848" depart="11.02" from="D4" to="D7" type="DEFAULT_VEHTYPE" fromTaz="taz92" toTaz="taz94" departLane="free" departSpeed="max"/>
  <trip id="1042" depart="11.06" from="D4" to="D5" type="DEFAULT_VEHTYPE" fromTaz="taz92" toTaz="taz93" departLane="free" departSpeed="max"/>
  <trip id="582" depart="11.07" from="D2" to="D7" type="DEFAULT_VEHTYPE" fromTaz="taz91" toTaz="taz94" departLane="free" departSpeed="max"/>
  <trip id="1849" depart="11.34" from="D4" to="D7" type="DEFAULT_VEHTYPE" fromTaz="taz92" toTaz="taz94" departLane="free" departSpeed="max"/>
  <trip id="21" depart="11.40" from="D2" to="D5" type="DEFAULT_VEHTYPE" fromTaz="taz91" toTaz="taz93" departLane="free" departSpeed="max"/>
  <trip id="1043" depart="11.44" from="D4" to="D5" type="DEFAULT_VEHTYPE" fromTaz="taz92" toTaz="taz93" departLane="free" departSpeed="max"/>
  <trip id="1850" depart="11.65" from="D4" to="D7" type="DEFAULT_VEHTYPE" fromTaz="taz92" toTaz="taz94" departLane="free" departSpeed="max"/>
  <trip id="583" depart="11.74" from="D2" to="D7" type="DEFAULT_VEHTYPE" fromTaz="taz91" toTaz="taz94" departLane="free" departSpeed="max"/>
  <trip id="1044" depart="11.81" from="D4" to="D5" type="DEFAULT_VEHTYPE" fromTaz="taz92" toTaz="taz93" departLane="free" departSpeed="max"/>
  <trip id="22" depart="11.93" from="D2" to="D5" type="DEFAULT_VEHTYPE" fromTaz="taz91" toTaz="taz93" departLane="free" departSpeed="max"/>
  <trip id="1851" depart="11.96" from="D4" to="D7" type="DEFAULT_VEHTYPE" fromTaz="taz92" toTaz="taz94" departLane="free" departSpeed="max"/>
  <trip id="1045" depart="12.19" from="D4" to="D5" type="DEFAULT_VEHTYPE" fromTaz="taz92" toTaz="taz93" departLane="free" departSpeed="max"/>
  <trip id="1852" depart="12.27" from="D4" to="D7" type="DEFAULT_VEHTYPE" fromTaz="taz92" toTaz="taz94" departLane="free" departSpeed="max"/>
  <trip id="584" depart="12.42" from="D2" to="D7" type="DEFAULT_VEHTYPE" fromTaz="taz91" toTaz="taz94" departLane="free" departSpeed="max"/>
  <trip id="23" depart="12.46" from="D2" to="D5" type="DEFAULT_VEHTYPE" fromTaz="taz91" toTaz="taz93" departLane="free" departSpeed="max"/>
  <trip id="1046" depart="12.56" from="D4" to="D5" type="DEFAULT_VEHTYPE" fromTaz="taz92" toTaz="taz93" departLane="free" departSpeed="max"/>
  <trip id="1853" depart="12.58" from="D4" to="D7" type="DEFAULT_VEHTYPE" fromTaz="taz92" toTaz="taz94" departLane="free" departSpeed="max"/>
  <trip id="1854" depart="12.89" from="D4" to="D7" type="DEFAULT_VEHTYPE" fromTaz="taz92" toTaz="taz94" departLane="free" departSpeed="max"/>
  <trip id="1047" depart="12.94" from="D4" to="D5" type="DEFAULT_VEHTYPE" fromTaz="taz92" toTaz="taz93" departLane="free" departSpeed="max"/>
  <trip id="24" depart="12.99" from="D2" to="D5" type="DEFAULT_VEHTYPE" fromTaz="taz91" toTaz="taz93" departLane="free" departSpeed="max"/>
  <trip id="585" depart="13.09" from="D2" to="D7" type="DEFAULT_VEHTYPE" fromTaz="taz91" toTaz="taz94" departLane="free" departSpeed="max"/>
  <trip id="1855" depart="13.20" from="D4" to="D7" type="DEFAULT_VEHTYPE" fromTaz="taz92" toTaz="taz94" departLane="free" departSpeed="max"/>
  <trip id="1048" depart="13.31" from="D4" to="D5" type="DEFAULT_VEHTYPE" fromTaz="taz92" toTaz="taz93" departLane="free" departSpeed="max"/>
  <trip id="1856" depart="13.51" from="D4" to="D7" type="DEFAULT_VEHTYPE" fromTaz="taz92" toTaz="taz94" departLane="free" departSpeed="max"/>
  <trip id="25" depart="13.52" from="D2" to="D5" type="DEFAULT_VEHTYPE" fromTaz="taz91" toTaz="taz93" departLane="free" departSpeed="max"/>
  <trip id="1049" depart="13.69" from="D4" to="D5" type="DEFAULT_VEHTYPE" fromTaz="taz92" toTaz="taz93" departLane="free" departSpeed="max"/>
  <trip id="586" depart="13.76" from="D2" to="D7" type="DEFAULT_VEHTYPE" fromTaz="taz91" toTaz="taz94" departLane="free" departSpeed="max"/>
  <trip id="1857" depart="13.82" from="D4" to="D7" type="DEFAULT_VEHTYPE" fromTaz="taz92" toTaz="taz94" departLane="free" departSpeed="max"/>
  <trip id="26" depart="14.05" from="D2" to="D5" type="DEFAULT_VEHTYPE" fromTaz="taz91" toTaz="taz93" departLane="free" departSpeed="max"/>
  <trip id="1050" depart="14.06" from="D4" to="D5" type="DEFAULT_VEHTYPE" fromTaz="taz92" toTaz="taz93" departLane="free" departSpeed="max"/>
  <trip id="1858" depart="14.13" from="D4" to="D7" type="DEFAULT_VEHTYPE" fromTaz="taz92" toTaz="taz94" departLane="free" departSpeed="max"/>
  <trip id="587" depart="14.43" from="D2" to="D7" type="DEFAULT_VEHTYPE" fromTaz="taz91" toTaz="taz94" departLane="free" departSpeed="max"/>
  <trip id="1051" depart="14.44" from="D4" to="D5" type="DEFAULT_VEHTYPE" fromTaz="taz92" toTaz="taz93" departLane="free" departSpeed="max"/>
  <trip id="1859" depart="14.44" from="D4" to="D7" type="DEFAULT_VEHTYPE" fromTaz="taz92" toTaz="taz94" departLane="free" departSpeed="max"/>
  <trip id="27" depart="14.58" from="D2" to="D5" type="DEFAULT_VEHTYPE" fromTaz="taz91" toTaz="taz93" departLane="free" departSpeed="max"/>
  <trip id="1860" depart="14.75" from="D4" to="D7" type="DEFAULT_VEHTYPE" fromTaz="taz92" toTaz="taz94" departLane="free" departSpeed="max"/>
  <trip id="1052" depart="14.81" from="D4" to="D5" type="DEFAULT_VEHTYPE" fromTaz="taz92" toTaz="taz93" departLane="free" departSpeed="max"/>
  <trip id="1861" depart="15.06" from="D4" to="D7" type="DEFAULT_VEHTYPE" fromTaz="taz92" toTaz="taz94" departLane="free" departSpeed="max"/>
  <trip id="588" depart="15.10" from="D2" to="D7" type="DEFAULT_VEHTYPE" fromTaz="taz91" toTaz="taz94" departLane="free" departSpeed="max"/>
  <trip id="28" depart="15.11" from="D2" to="D5" type="DEFAULT_VEHTYPE" fromTaz="taz91" toTaz="taz93" departLane="free" departSpeed="max"/>
  <trip id="1053" depart="15.19" from="D4" to="D5" type="DEFAULT_VEHTYPE" fromTaz="taz92" toTaz="taz93" departLane="free" departSpeed="max"/>
  <trip id="1862" depart="15.37" from="D4" to="D7" type="DEFAULT_VEHTYPE" fromTaz="taz92" toTaz="taz94" departLane="free" departSpeed="max"/>
  <trip id="1054" depart="15.56" from="D4" to="D5" type="DEFAULT_VEHTYPE" fromTaz="taz92" toTaz="taz93" departLane="free" departSpeed="max"/>
  <trip id="29" depart="15.64" from="D2" to="D5" type="DEFAULT_VEHTYPE" fromTaz="taz91" toTaz="taz93" departLane="free" departSpeed="max"/>
  <trip id="1863" depart="15.68" from="D4" to="D7" type="DEFAULT_VEHTYPE" fromTaz="taz92" toTaz="taz94" departLane="free" departSpeed="max"/>
  <trip id="589" depart="15.77" from="D2" to="D7" type="DEFAULT_VEHTYPE" fromTaz="taz91" toTaz="taz94" departLane="free" departSpeed="max"/>
  <trip id="1055" depart="15.94" from="D4" to="D5" type="DEFAULT_VEHTYPE" fromTaz="taz92" toTaz="taz93" departLane="free" departSpeed="max"/>
  <trip id="1864" depart="15.99" from="D4" to="D7" type="DEFAULT_VEHTYPE" fromTaz="taz92" toTaz="taz94" departLane="free" departSpeed="max"/>
  <trip id="30" depart="16.17" from="D2" to="D5" type="DEFAULT_VEHTYPE" fromTaz="taz91" toTaz="taz93" departLane="free" departSpeed="max"/>
  <trip id="1865" depart="16.30" from="D4" to="D7" type="DEFAULT_VEHTYPE" fromTaz="taz92" toTaz="taz94" departLane="free" departSpeed="max"/>
  <trip id="1056" depart="16.31" from="D4" to="D5" type="DEFAULT_VEHTYPE" fromTaz="taz92" toTaz="taz93" departLane="free" departSpeed="max"/>
  <trip id="590" depart="16.44" from="D2" to="D7" type="DEFAULT_VEHTYPE" fromTaz="taz91" toTaz="taz94" departLane="free" departSpeed="max"/>
  <trip id="1866" depart="16.61" from="D4" to="D7" type="DEFAULT_VEHTYPE" fromTaz="taz92" toTaz="taz94" departLane="free" departSpeed="max"/>
  <trip id="1057" depart="16.69" from="D4" to="D5" type="DEFAULT_VEHTYPE" fromTaz="taz92" toTaz="taz93" departLane="free" departSpeed="max"/>
  <trip id="31" depart="16.70" from="D2" to="D5" type="DEFAULT_VEHTYPE" fromTaz="taz91" toTaz="taz93" departLane="free" departSpeed="max"/>
  <trip id="1867" depart="16.93" from="D4" to="D7" type="DEFAULT_VEHTYPE" fromTaz="taz92" toTaz="taz94" departLane="free" departSpeed="max"/>
  <trip id="1058" depart="17.06" from="D4" to="D5" type="DEFAULT_VEHTYPE" fromTaz="taz92" toTaz="taz93" departLane="free" departSpeed="max"/>
  <trip id="591" depart="17.11" from="D2" to="D7" type="DEFAULT_VEHTYPE" fromTaz="taz91" toTaz="taz94" departLane="free" departSpeed="max"/>
  <trip id="32" depart="17.23" from="D2" to="D5" type="DEFAULT_VEHTYPE" fromTaz="taz91" toTaz="taz93" departLane="free" departSpeed="max"/>
  <trip id="1868" depart="17.24" from="D4" to="D7" type="DEFAULT_VEHTYPE" fromTaz="taz92" toTaz="taz94" departLane="free" departSpeed="max"/>
  <trip id="1059" depart="17.44" from="D4" to="D5" type="DEFAULT_VEHTYPE" fromTaz="taz92" toTaz="taz93" departLane="free" departSpeed="max"/>
  <trip id="1869" depart="17.55" from="D4" to="D7" type="DEFAULT_VEHTYPE" fromTaz="taz92" toTaz="taz94" departLane="free" departSpeed="max"/>
  <trip id="33" depart="17.76" from="D2" to="D5" type="DEFAULT_VEHTYPE" fromTaz="taz91" toTaz="taz93" departLane="free" departSpeed="max"/>
  <trip id="592" depart="17.79" from="D2" to="D7" type="DEFAULT_VEHTYPE" fromTaz="taz91" toTaz="taz94" departLane="free" departSpeed="max"/>
  <trip id="1060" depart="17.81" from="D4" to="D5" type="DEFAULT_VEHTYPE" fromTaz="taz92" toTaz="taz93" departLane="free" departSpeed="max"/>
  <trip id="1870" depart="17.86" from="D4" to="D7" type="DEFAULT_VEHTYPE" fromTaz="taz92" toTaz="taz94" departLane="free" departSpeed="max"/>
  <trip id="1871" depart="18.17" from="D4" to="D7" type="DEFAULT_VEHTYPE" fromTaz="taz92" toTaz="taz94" departLane="free" departSpeed="max"/>
  <trip id="1061" depart="18.19" from="D4" to="D5" type="DEFAULT_VEHTYPE" fromTaz="taz92" toTaz="taz93" departLane="free" departSpeed="max"/>
  <trip id="34" depart="18.29" from="D2" to="D5" type="DEFAULT_VEHTYPE" fromTaz="taz91" toTaz="taz93" departLane="free" departSpeed="max"/>
  <trip id="593" depart="18.46" from="D2" to="D7" type="DEFAULT_VEHTYPE" fromTaz="taz91" toTaz="taz94" departLane="free" departSpeed="max"/>
  <trip id="1872" depart="18.48" from="D4" to="D7" type="DEFAULT_VEHTYPE" fromTaz="taz92" toTaz="taz94" departLane="free" departSpeed="max"/>
  <trip id="1062" depart="18.56" from="D4" to="D5" type="DEFAULT_VEHTYPE" fromTaz="taz92" toTaz="taz93" departLane="free" departSpeed="max"/>
  <trip id="1873" depart="18.79" from="D4" to="D7" type="DEFAULT_VEHTYPE" fromTaz="taz92" toTaz="taz94" departLane="free" departSpeed="max"/>
  <trip id="35" depart="18.82" from="D2" to="D5" type="DEFAULT_VEHTYPE" fromTaz="taz91" toTaz="taz93" departLane="free" departSpeed="max"/>
  <trip id="1063" depart="18.94" from="D4" to="D5" type="DEFAULT_VEHTYPE" fromTaz="taz92" toTaz="taz93" departLane="free" departSpeed="max"/>
  <trip id="1874" depart="19.10" from="D4" to="D7" type="DEFAULT_VEHTYPE" fromTaz="taz92" toTaz="taz94" departLane="free" departSpeed="max"/>
  <trip id="594" depart="19.13" from="D2" to="D7" type="DEFAULT_VEHTYPE" fromTaz="taz91" toTaz="taz94" departLane="free" departSpeed="max"/>
  <trip id="1064" depart="19.31" from="D4" to="D5" type="DEFAULT_VEHTYPE" fromTaz="taz92" toTaz="taz93" departLane="free" departSpeed="max"/>
  <trip id="36" depart="19.35" from="D2" to="D5" type="DEFAULT_VEHTYPE" fromTaz="taz91" toTaz="taz93" departLane="free" departSpeed="max"/>
  <trip id="1875" depart="19.41" from="D4" to="D7" type="DEFAULT_VEHTYPE" fromTaz="taz92" toTaz="taz94" departLane="free" departSpeed="max"/>
  <trip id="1065" depart="19.69" from="D4" to="D5" type="DEFAULT_VEHTYPE" fromTaz="taz92" toTaz="taz93" departLane="free" departSpeed="max"/>
  <trip id="1876" depart="19.72" from="D4" to="D7" type="DEFAULT_VEHTYPE" fromTaz="taz92" toTaz="taz94" departLane="free" departSpeed="max"/>
  <trip id="595" depart="19.80" from="D2" to="D7" type="DEFAULT_VEHTYPE" fromTaz="taz91" toTaz="taz94" departLane="free" departSpeed="max"/>
  <trip id="37" depart="19.88" from="D2" to="D5" type="DEFAULT_VEHTYPE" fromTaz="taz91" toTaz="taz93" departLane="free" departSpeed="max"/>
  <trip id="1877" depart="20.03" from="D4" to="D7" type="DEFAULT_VEHTYPE" fromTaz="taz92" toTaz="taz94" departLane="free" departSpeed="max"/>
  <trip id="1066" depart="20.06" from="D4" to="D5" type="DEFAULT_VEHTYPE" fromTaz="taz92" toTaz="taz93" departLane="free" departSpeed="max"/>
  <trip id="1878" depart="20.34" from="D4" to="D7" type="DEFAULT_VEHTYPE" fromTaz="taz92" toTaz="taz94" departLane="free" departSpeed="max"/>
  <trip id="38" depart="20.41" from="D2" to="D5" type="DEFAULT_VEHTYPE" fromTaz="taz91" toTaz="taz93" departLane="free" departSpeed="max"/>
  <trip id="1067" depart="20.44" from="D4" to="D5" type="DEFAULT_VEHTYPE" fromTaz="taz92" toTaz="taz93" departLane="free" departSpeed="max"/>
  <trip id="596" depart="20.47" from="D2" to="D7" type="DEFAULT_VEHTYPE" fromTaz="taz91" toTaz="taz94" departLane="free" departSpeed="max"/>
  <trip id="1879" depart="20.65" from="D4" to="D7" type="DEFAULT_VEHTYPE" fromTaz="taz92" toTaz="taz94" departLane="free" departSpeed="max"/>
  <trip id="1068" depart="20.81" from="D4" to="D5" type="DEFAULT_VEHTYPE" fromTaz="taz92" toTaz="taz93" departLane="free" departSpeed="max"/>
  <trip id="39" depart="20.94" from="D2" to="D5" type="DEFAULT_VEHTYPE" fromTaz="taz91" toTaz="taz93" departLane="free" departSpeed="max"/>
  <trip id="1880" depart="20.96" from="D4" to="D7" type="DEFAULT_VEHTYPE" fromTaz="taz92" toTaz="taz94" departLane="free" departSpeed="max"/>
  <trip id="597" depart="21.14" from="D2" to="D7" type="DEFAULT_VEHTYPE" fromTaz="taz91" toTaz="taz94" departLane="free" departSpeed="max"/>
  <trip id="1069" depart="21.19" from="D4" to="D5" type="DEFAULT_VEHTYPE" fromTaz="taz92" toTaz="taz93" departLane="free" departSpeed="max"/>
  <trip id="1881" depart="21.27" from="D4" to="D7" type="DEFAULT_VEHTYPE" fromTaz="taz92" toTaz="taz94" departLane="free" departSpeed="max"/>
  <trip id="40" depart="21.47" from="D2" to="D5" type="DEFAULT_VEHTYPE" fromTaz="taz91" toTaz="taz93" departLane="free" departSpeed="max"/>
  <trip id="1070" depart="21.56" from="D4" to="D5" type="DEFAULT_VEHTYPE" fromTaz="taz92" toTaz="taz93" departLane="free" departSpeed="max"/>
  <trip id="1882" depart="21.58" from="D4" to="D7" type="DEFAULT_VEHTYPE" fromTaz="taz92" toTaz="taz94" departLane="free" departSpeed="max"/>
  <trip id="598" depart="21.81" from="D2" to="D7" type="DEFAULT_VEHTYPE" fromTaz="taz91" toTaz="taz94" departLane="free" departSpeed="max"/>
  <trip id="1883" depart="21.89" from="D4" to="D7" type="DEFAULT_VEHTYPE" fromTaz="taz92" toTaz="taz94" departLane="free" departSpeed="max"/>
  <trip id="1071" depart="21.94" from="D4" to="D5" type="DEFAULT_VEHTYPE" fromTaz="taz92" toTaz="taz93" departLane="free" departSpeed="max"/>
  <trip id="41" depart="22.00" from="D2" to="D5" type="DEFAULT_VEHTYPE" fromTaz="taz91" toTaz="taz93" departLane="free" departSpeed="max"/>
  <trip id="1884" depart="22.20" from="D4" to="D7" type="DEFAULT_VEHTYPE" fromTaz="taz92" toTaz="taz94" departLane="free" departSpeed="max"/>
  <trip id="1072" depart="22.31" from="D4" to="D5" type="DEFAULT_VEHTYPE" fromTaz="taz92" toTaz="taz93" departLane="free" departSpeed="max"/>
  <trip id="599" depart="22.48" from="D2" to="D7" type="DEFAULT_VEHTYPE" fromTaz="taz91" toTaz="taz94" departLane="free" departSpeed="max"/>
  <trip id="1885" depart="22.52" from="D4" to="D7" type="DEFAULT_VEHTYPE" fromTaz="taz92" toTaz="taz94" departLane="free" departSpeed="max"/>
  <trip id="42" depart="22.53" from="D2" to="D5" type="DEFAULT_VEHTYPE" fromTaz="taz91" toTaz="taz93" departLane="free" departSpeed="max"/>
  <trip id="1073" depart="22.69" from="D4" to="D5" type="DEFAULT_VEHTYPE" fromTaz="taz92" toTaz="taz93" departLane="free" departSpeed="max"/>
  <trip id="1886" depart="22.83" from="D4" to="D7" type="DEFAULT_VEHTYPE" fromTaz="taz92" toTaz="taz94" departLane="free" departSpeed="max"/>