<?xml version='1.0' encoding='utf-8'?>
<routes>
  <trip id="1484" depart="0.11" from="D4" to="D7" type="DEFAULT_VEHTYPE" fromTaz="taz92" toTaz="taz94" departLane="free" departSpeed="max"/>
  <trip id="0" depart="0.19" from="D2" to="D5" type="DEFAULT_VEHTYPE" fromTaz="taz91" toTaz="taz93" departLane="free" departSpeed="max"/>
  <trip id="923" depart="0.27" from="D4" to="D5" type="DEFAULT_VEHTYPE" fromTaz="taz92" toTaz="taz93" departLane="free" departSpeed="max"/>
  <trip id="1485" depart="0.34" from="D4" to="D7" type="DEFAULT_VEHTYPE" fromTaz="taz92" toTaz="taz94" departLane="free" departSpeed="max"/>
  <trip id="1486" depart="0.56" from="D4" to="D7" type="DEFAULT_VEHTYPE" fromTaz="taz92" toTaz="taz94" departLane="free" departSpeed="max"/>
  <trip id="1" depart="0.58" from="D2" to="D5" type="DEFAULT_VEHTYPE" fromTaz="taz91" toTaz="taz93" departLane="free" departSpeed="max"/>
  <trip id="1487" depart="0.79" from="D4" to="D7" type="DEFAULT_VEHTYPE" fromTaz="taz92" toTaz="taz94" departLane="free" departSpeed="max"/>
  <trip id="924" depart="0.80" from="D4" to="D5" type="DEFAULT_VEHTYPE" fromTaz="taz92" toTaz="taz93" departLane="free" departSpeed="max"/>
  <trip id="2" depart="0.97" from="D2" to="D5" type="DEFAULT_VEHTYPE" fromTaz="taz91" toTaz="taz93" departLane="free" departSpeed="max"/>
  <trip id="1488" depart="1.01" from="D4" to="D7" type="DEFAULT_VEHTYPE" fromTaz="taz92" toTaz="taz94" departLane="free" departSpeed="max"/>
  <trip id="774" depart="1.01" from="D2" to="D7" type="DEFAULT_VEHTYPE" fromTaz="taz91" toTaz="taz94" departLane="free" departSpeed="max"/>
  <trip id="1489" depart="1.24" from="D4" to="D7" type="DEFAULT_VEHTYPE" fromTaz="taz92" toTaz="taz94" departLane="free" departSpeed="max"/>
  <trip id="925" depart="1.34" from="D4" to="D5" type="DEFAULT_VEHTYPE" fromTaz="taz92" toTaz="taz93" departLane="free" departSpeed="max"/>
  <trip id="3" depart="1.36" from="D2" to="D5" type="DEFAULT_VEHTYPE" fromTaz="taz91" toTaz="taz93" departLane="free" departSpeed="max"/>
  <trip id="1490" depart="1.46" from="D4" to="D7" type="DEFAULT_VEHTYPE" fromTaz="taz92" toTaz="taz94" departLane="free" departSpeed="max"/>
  <trip id="1491" depart="1.69" from="D4" to="D7" type="DEFAULT_VEHTYPE" fromTaz="taz92" toTaz="taz94" departLane="free" departSpeed="max"/>
  <trip id="4" depart="1.74" from="D2" to="D5" type="DEFAULT_VEHTYPE" fromTaz="taz91" toTaz="taz93" departLane="free" departSpeed="max"/>
  <trip id="926" depart="1.87" from="D4" to="D5" type="DEFAULT_VEHTYPE" fromTaz="taz92" toTaz="taz93" departLane="free" departSpeed="max"/>
  <trip id="1492" depart="1.91" from="D4" to="D7" type="DEFAULT_VEHTYPE" fromTaz="taz92" toTaz="taz94" departLane="free" departSpeed="max"/>
  <trip id="5" depart="2.13" from="D2" to="D5" type="DEFAULT_VEHTYPE" fromTaz="taz91" toTaz="taz93" departLane="free" departSpeed="max"/>
  <trip id="1493" depart="2.14" from="D4" to="D7" type="DEFAULT_VEHTYPE" fromTaz="taz92" toTaz="taz94" departLane="free" departSpeed="max"/>
  <trip id="1494" depart="2.36" from="D4" to="D7" type="DEFAULT_VEHTYPE" fromTaz="taz92" toTaz="taz94" departLane="free" departSpeed="max"/>
  <trip id="927" depart="2.41" from="D4" to="D5" type="DEFAULT_VEHTYPE" fromTaz="taz92" toTaz="taz93" departLane="free" departSpeed="max"/>
  <trip id="6" depart="2.52" from="D2" to="D5" type="DEFAULT_VEHTYPE" fromTaz="taz91" toTaz="taz93" departLane="free" departSpeed="max"/>
  <trip id="1495" depart="2.59" from="D4" to="D7" type="DEFAULT_VEHTYPE" fromTaz="taz92" toTaz="taz94" departLane="free" departSpeed="max"/>
  <trip id="1496" depart="2.81" from="D4" to="D7" type="DEFAULT_VEHTYPE" fromTaz="taz92" toTaz="taz94" departLane="free" departSpeed="max"/>
  <trip id="7" depart="2.91" from="D2" to="D5" type="DEFAULT_VEHTYPE" fromTaz="taz91" toTaz="taz93" departLane="free" departSpeed="max"/>
  <trip id="928" depart="2.94" from="D4" to="D5" type="DEFAULT_VEHTYPE" fromTaz="taz92" toTaz="taz93" departLane="free" departSpeed="max"/>
  <trip id="775" depart="3.02" from="D2" to="D7" type="DEFAULT_VEHTYPE" fromTaz="taz91" toTaz="taz94" departLane="free" departSpeed="max"/>
  <trip id="1497" depart="3.04" from="D4" to="D7" type="DEFAULT_VEHTYPE" fromTaz="taz92" toTaz="taz94" departLane="free" departSpeed="max"/>
  <trip id="1498" depart="3.26" from="D4" to="D7" type="DEFAULT_VEHTYPE" fromTaz="taz92" toTaz="taz94" departLane="free" departSpeed="max"/>
  <trip id="8" depart="3.29" from="D2" to="D5" type="DEFAULT_VEHTYPE" fromTaz="taz91" toTaz="taz93" departLane="free" departSpeed="max"/>
  <trip id="929" depart="3.48" from="D4" to="D5" type="DEFAULT_VEHTYPE" fromTaz="taz92" toTaz="taz93" departLane="free" departSpeed="max"/>
  <trip id="1499" depart="3.49" from="D4" to="D7" type="DEFAULT_VEHTYPE" fromTaz="taz92" toTaz="taz94" departLane="free" departSpeed="max"/>
  <trip id="9" depart="3.68" from="D2" to="D5" type="DEFAULT_VEHTYPE" fromTaz="taz91" toTaz="taz93" departLane="free" departSpeed="max"/>
  <trip id="1500" depart="3.71" from="D4" to="D7" type="DEFAULT_VEHTYPE" fromTaz="taz92" toTaz="taz94" departLane="free" departSpeed="max"/>
  <trip id="1501" depart="3.94" from="D4" to="D7" type="DEFAULT_VEHTYPE" fromTaz="taz92" toTaz="taz94" departLane="free" departSpeed="max"/>
  <trip id="930" depart="4.01" from="D4" to="D5" type="DEFAULT_VEHTYPE" fromTaz="taz92" toTaz="taz93" departLane="free" departSpeed="max"/>
  <trip id="10" depart="4.07" from="D2" to="D5" type="DEFAULT_VEHTYPE" fromTaz="taz91" toTaz="taz93" departLane="free" departSpeed="max"/>
  <trip id="1502" depart="4.16" from="D4" to="D7" type="DEFAULT_VEHTYPE" fromTaz="taz92" toTaz="taz94" departLane="free" departSpeed="max"/>
  <trip id="1503" depart="4.39" from="D4" to="D7" type="DEFAULT_VEHTYPE" fromTaz="taz92" toTaz="taz94" departLane="free" departSpeed="max"/>
  <trip id="11" depart="4.46" from="D2" to="D5" type="DEFAULT_VEHTYPE" fromTaz="taz91" toTaz="taz93" departLane="free" departSpeed="max"/>
  <trip id="931" depart="4.55" from="D4" to="D5" type="DEFAULT_VEHTYPE" fromTaz="taz92" toTaz="taz93" departLane="free" departSpeed="max"/>
  <trip id="1504" depart="4.61" from="D4" to="D7" type="DEFAULT_VEHTYPE" fromTaz="taz92" toTaz="taz94" departLane="free" departSpeed="max"/>
  <trip id="12" depart="4.84" from="D2" to="D5" type="DEFAULT_VEHTYPE" fromTaz="taz91" toTaz="taz93" departLane="free" departSpeed="max"/>
  <trip id="1505" depart="4.84" from="D4" to="D7" type="DEFAULT_VEHTYPE" fromTaz="taz92" toTaz="taz94" departLane="free" departSpeed="max"/>
  <trip id="776" depart="5.03" from="D2" to="D7" type="DEFAULT_VEHTYPE" fromTaz="taz91" toTaz="taz94" departLane="free" departSpeed="max"/>
  <trip id="1506" depart="5.06" from="D4" to="D7" type="DEFAULT_VEHTYPE" fromTaz="taz92" toTaz="taz94" departLane="free" departSpeed="max"/>
  <trip id="932" depart="5.08" from="D4" to="D5" type="DEFAULT_VEHTYPE" fromTaz="taz92" toTaz="taz93" departLane="free" departSpeed="max"/>
  <trip id="13" depart="5.23" from="D2" to="D5" type="DEFAULT_VEHTYPE" fromTaz="taz91" toTaz="taz93" departLane="free" departSpeed="max"/>
  <trip id="1507" depart="5.29" from="D4" to="D7" type="DEFAULT_VEHTYPE" fromTaz="taz92" toTaz="taz94" departLane="free" departSpeed="max"/>
  <trip id="1508" depart="5.51" from="D4" to="D7" type="DEFAULT_VEHTYPE" fromTaz="taz92" toTaz="taz94" departLane="free" departSpeed="max"/>
  <trip id="933" depart="5.61" from="D4" to="D5" type="DEFAULT_VEHTYPE" fromTaz="taz92" toTaz="taz93" departLane="free" departSpeed="max"/>
  <trip id="14" depart="5.62" from="D2" to="D5" type="DEFAULT_VEHTYPE" fromTaz="taz91" toTaz="taz93" departLane="free" departSpeed="max"/>
  <trip id="1509" depart="5.74" from="D4" to="D7" type="DEFAULT_VEHTYPE" fromTaz="taz92" toTaz="taz94" departLane="free" departSpeed="max"/>
  <trip id="1510" depart="5.96" from="D4" to="D7" type="DEFAULT_VEHTYPE" fromTaz="taz92" toTaz="taz94" departLane="free" departSpeed="max"/>
  <trip id="15" depart="6.01" from="D2" to="D5" type="DEFAULT_VEHTYPE" fromTaz="taz91" toTaz="taz93" departLane="free" departSpeed="max"/>
  <trip id="934" depart="6.15" from="D4" to="D5" type="DEFAULT_VEHTYPE" fromTaz="taz92" toTaz="taz93" departLane="free" departSpeed="max"/>
  <trip id="1511" depart="6.19" from="D4" to="D7" type="DEFAULT_VEHTYPE" fromTaz="taz92" toTaz="taz94" departLane="free" departSpeed="max"/>
  <trip id="16" depart="6.40" from="D2" to="D5" type="DEFAULT_VEHTYPE" fromTaz="taz91" toTaz="taz93" departLane="free" departSpeed="max"/>
  <trip id="1512" depart="6.41" from="D4" to="D7" type="DEFAULT_VEHTYPE" fromTaz="taz92" toTaz="taz94" departLane="free" departSpeed="max"/>
  <trip id="1513" depart="6.64" from="D4" to="D7" type="DEFAULT_VEHTYPE" fromTaz="taz92" toTaz="taz94" departLane="free" departSpeed="max"/>
  <trip id="935" depart="6.68" from="D4" to="D5" type="DEFAULT_VEHTYPE" fromTaz="taz92" toTaz="taz93" departLane="free" departSpeed="max"/>
  <trip id="17" depart="6.78" from="D2" to="D5" type="DEFAULT_VEHTYPE" fromTaz="taz91" toTaz="taz93" departLane="free" departSpeed="max"/>
  <trip id="1514" depart="6.86" from="D4" to="D7" type="DEFAULT_VEHTYPE" fromTaz="taz92" toTaz="taz94" departLane="free" departSpeed="max"/>
  <trip id="777" depart="7.05" from="D2" to="D7" type="DEFAULT_VEHTYPE" fromTaz="taz91" toTaz="taz94" departLane="free" departSpeed="max"/>
  <trip id="1515" depart="7.09" from="D4" to="D7" type="DEFAULT_VEHTYPE" fromTaz="taz92" toTaz="taz94" departLane="free" departSpeed="max"/>
  <trip id="18" depart="7.17" from="D2" to="D5" type="DEFAULT_VEHTYPE" fromTaz="taz91" toTaz="taz93" departLane="free" departSpeed="max"/>
  <trip id="936" depart="7.22" from="D4" to="D5" type="DEFAULT_VEHTYPE" fromTaz="taz92" toTaz="taz93" departLane="free" departSpeed="max"/>
  <trip id="1516" depart="7.31" from="D4" to="D7" type="DEFAULT_VEHTYPE" fromTaz="taz92" toTaz="taz94" departLane="free" departSpeed="max"/>
  <trip id="1517" depart="7.54" from="D4" to="D7" type="DEFAULT_VEHTYPE" fromTaz="taz92" toTaz="taz94" departLane="free" departSpeed="max"/>
  <trip id="19" depart="7.56" from="D2" to="D5" type="DEFAULT_VEHTYPE" fromTaz="taz91" toTaz="taz93" departLane="free" departSpeed="max"/>
  <trip id="937" depart="7.75" from="D4" to="D5" type="DEFAULT_VEHTYPE" fromTaz="taz92" toTaz="taz93" departLane="free" departSpeed="max"/>
  <trip id="1518" depart="7.76" from="D4" to="D7" type="DEFAULT_VEHTYPE" fromTaz="taz92" toTaz="taz94" departLane="free" departSpeed="max"/>
  <trip id="20" depart="7.95" from="D2" to="D5" type="DEFAULT_VEHTYPE" fromTaz="taz91" toTaz="taz93" departLane="free" departSpeed="max"/>
  <trip id="1519" depart="7.99" from="D4" to="D7" type="DEFAULT_VEHTYPE" fromTaz="taz92" toTaz="taz94" departLane="free" departSpeed="max"/>
  <trip id="1520" depart="8.21" from="D4" to="D7" type="DEFAULT_VEHTYPE" fromTaz="taz92" toTaz="taz94" departLane="free" departSpeed="max"/>
  <trip id="938" depart="8.29" from="D4" to="D5" type="DEFAULT_VEHTYPE" fromTaz="taz92" toTaz="taz93" departLane="free" departSpeed="max"/>
  <trip id="21" depart="8.33" from="D2" to="D5" type="DEFAULT_VEHTYPE" fromTaz="taz91" toTaz="taz93" departLane="free" departSpeed="max"/>
  <trip id="1521" depart="8.44" from="D4" to="D7" type="DEFAULT_VEHTYPE" fromTaz="taz92" toTaz="taz94" departLane="free" departSpeed="max"/>
  <trip id="1522" depart="8.66" from="D4" to="D7" type="DEFAULT_VEHTYPE" fromTaz="taz92" toTaz="taz94" departLane="free" departSpeed="max"/>
  <trip id="22" depart="8.72" from="D2" to="D5" type="DEFAULT_VEHTYPE" fromTaz="taz91" toTaz="taz93" departLane="free" departSpeed="max"/>
  <trip id="939" depart="8.82" from="D4" to="D5" type="DEFAULT_VEHTYPE" fromTaz="taz92" toTaz="taz93" departLane="free" departSpeed="max"/>
  <trip id="1523" depart="8.89" from="D4" to="D7" type="DEFAULT_VEHTYPE" fromTaz="taz92" toTaz="taz94" departLane="free" departSpeed="max"/>
  <trip id="778" depart="9.06" from="D2" to="D7" type="DEFAULT_VEHTYPE" fromTaz="taz91" toTaz="taz94" departLane="free" departSpeed="max"/>
  <trip id="23" depart="9.11" from="D2" to="D5" type="DEFAULT_VEHTYPE" fromTaz="taz91" toTaz="taz93" departLane="free" departSpeed="max"/>
  <trip id="1524" depart="9.11" from="D4" to="D7" type="DEFAULT_VEHTYPE" fromTaz="taz92" toTaz="taz94" departLane="free" departSpeed="max"/>
  <trip id="1525" depart="9.34" from="D4" to="D7" type="DEFAULT_VEHTYPE" fromTaz="taz92" toTaz="taz94" departLane="free" departSpeed="max"/>
  <trip id="940" depart="9.36" from="D4" to="D5" type="DEFAULT_VEHTYPE" fromTaz="taz92" toTaz="taz93" departLane="free" departSpeed="max"/>
  <trip id="24" depart="9.50" from="D2" to="D5" type="DEFAULT_VEHTYPE" fromTaz="taz91" toTaz="taz93" departLane="free" departSpeed="max"/>
  <trip id="1526" depart="9.56" from="D4" to="D7" type="DEFAULT_VEHTYPE" fromTaz="taz92" toTaz="taz94" departLane="free" departSpeed="max"/>
  <trip id="1527" depart="9.79" from="D4" to="D7" type="DEFAULT_VEHTYPE" fromTaz="taz92" toTaz="taz94" departLane="free" departSpeed="max"/>
  <trip id="25" depart="9.88" from="D2" to="D5" type="DEFAULT_VEHTYPE" fromTaz="taz91" toTaz="taz93" departLane="free" departSpeed="max"/>
  <trip id="941" depart="9.89" from="D4" to="D5" type="DEFAULT_VEHTYPE" fromTaz="taz92" toTaz="taz93" departLane="free" departSpeed="max"/>
  <trip id="1528" depart="10.02" from="D4" to="D7" type="DEFAULT_VEHTYPE" fromTaz="taz92" toTaz="taz94" departLane="free" departSpeed="max"/>
  <trip id="1529" depart="10.24" from="D4" to="D7" type="DEFAULT_VEHTYPE" fromTaz="taz92" toTaz="taz94" departLane="free" departSpeed="max"/>
  <trip id="26" depart="10.27" from="D2" to="D5" type="DEFAULT_VEHTYPE" fromTaz="taz91" toTaz="taz93" departLane="free" departSpeed="max"/>
  <trip id="942" depart="10.43" from="D4" to="D5" type="DEFAULT_VEHTYPE" fromTaz="taz92" toTaz="taz93" departLane="free" departSpeed="max"/>
  <trip id="1530" depart="10.47" from="D4" to="D7" type="DEFAULT_VEHTYPE" fromTaz="taz92" toTaz="taz94" departLane="free" departSpeed="max"/>
  <trip id="27" depart="10.66" from="D2" to="D5" type="DEFAULT_VEHTYPE" fromTaz="taz91" toTaz="taz93" departLane="free" departSpeed="max"/>
  <trip id="1531" depart="10.69" from="D4" to="D7" type="DEFAULT_VEHTYPE" fromTaz="taz92" toTaz="taz94" departLane="free" departSpeed="max"/>
  <trip id="1532" depart="10.92" from="D4" to="D7" type="DEFAULT_VEHTYPE" fromTaz="taz92" toTaz="taz94" departLane="free" departSpeed="max"/>
  <trip id="943" depart="10.96" from="D4" to="D5" type="DEFAULT_VEHTYPE" fromTaz="taz92" toTaz="taz93" departLane="free" departSpeed="max"/>
  <trip id="28" depart="11.05" from="D2" to="D5" type="DEFAULT_VEHTYPE" fromTaz="taz91" toTaz="taz93" departLane="free" departSpeed="max"/>
  <trip id="779" depart="11.07" from="D2" to="D7" type="DEFAULT_VEHTYPE" fromTaz="taz91" toTaz="taz94" departLane="free" departSpeed="max"/>
  <trip id="1533" depart="11.14" from="D4" to="D7" type="DEFAULT_VEHTYPE" fromTaz="taz92" toTaz="taz94" departLane="free" departSpeed="max"/>
  <trip id="1534" depart="11.37" from="D4" to="D7" type="DEFAULT_VEHTYPE" fromTaz="taz92" toTaz="taz94" departLane="free" departSpeed="max"/>
  <trip id="29" depart="11.43" from="D2" to="D5" type="DEFAULT_VEHTYPE" fromTaz="taz91" toTaz="taz93" departLane="free" departSpeed="max"/>
  <trip id="944" depart="11.50" from="D4" to="D5" type="DEFAULT_VEHTYPE" fromTaz="taz92" toTaz="taz93" departLane="free" departSpeed="max"/>
  <trip id="1535" depart="11.59" from="D4" to="D7" type="DEFAULT_VEHTYPE" fromTaz="taz92" toTaz="taz94" departLane="free" departSpeed="max"/>
  <trip id="1536" depart="11.82" from="D4" to="D7" type="DEFAULT_VEHTYPE" fromTaz="taz92" toTaz="taz94" departLane="free" departSpeed="max"/>
  <trip id="30" depart="11.82" from="D2" to="D5" type="DEFAULT_VEHTYPE" fromTaz="taz91" toTaz="taz93" departLane="free" departSpeed="max"/>
  <trip id="945" depart="12.03" from="D4" to="D5" type="DEFAULT_VEHTYPE" fromTaz="taz92" toTaz="taz93" departLane="free" departSpeed="max"/>
  <trip id="1537" depart="12.04" from="D4" to="D7" type="DEFAULT_VEHTYPE" fromTaz="taz92" toTaz="taz94" departLane="free" departSpeed="max"/>
  <trip id="31" depart="12.21" from="D2" to="D5" type="DEFAULT_VEHTYPE" fromTaz="taz91" toTaz="taz93" departLane="free" departSpeed="max"/>
  <trip id="1538" depart="12.27" from="D4" to="D7" type="DEFAULT_VEHTYPE" fromTaz="taz92" toTaz="taz94" departLane="free" departSpeed="max"/>
  <trip id="1539" depart="12.49" from="D4" to="D7" type="DEFAULT_VEHTYPE" fromTaz="taz92" toTaz="taz94" departLane="free" departSpeed="max"/>
  <trip id="946" depart="12.57" from="D4" to="D5" type="DEFAULT_VEHTYPE" fromTaz="taz92" toTaz="taz93" departLane="free" departSpeed="max"/>
  <trip id="32" depart="12.60" from="D2" to="D5" type="DEFAULT_VEHTYPE" fromTaz="taz91" toTaz="taz93" departLane="free" departSpeed="max"/>
  <trip id="1540" depart="12.72" from="D4" to="D7" type="DEFAULT_VEHTYPE" fromTaz="taz92" toTaz="taz94" departLane="free" departSpeed="max"/>
  <trip id="1541" depart="12.94" from="D4" to="D7" type="DEFAULT_VEHTYPE" fromTaz="taz92" toTaz="taz94" departLane="free" departSpeed="max"/>
  <trip id="33" depart="12.98" from="D2" to="D5" type="DEFAULT_VEHTYPE" fromTaz="taz91" toTaz="taz93" departLane="free" departSpeed="max"/>
  <trip id="780" depart="13.09" from="D2" to="D7" type="DEFAULT_VEHTYPE" fromTaz="taz91" toTaz="taz94" departLane="free" departSpeed="max"/>
  <trip id="947" depart="13.10" from="D4" to="D5" type="DEFAULT_VEHTYPE" fromTaz="taz92" toTaz="taz93" departLane="free" departSpeed="max"/>
  <trip id="1542" depart="13.17" from="D4" to="D7" type="DEFAULT_VEHTYPE" fromTaz="taz92" toTaz="taz94" departLane="free" departSpeed="max"/>
  <trip id="34" depart="13.37" from="D2" to="D5" type="DEFAULT_VEHTYPE" fromTaz="taz91" toTaz="taz93" departLane="free" departSpeed="max"/>
  <trip id="1543" depart="13.39" from="D4" to="D7" type="DEFAULT_VEHTYPE" fromTaz="taz92" toTaz="taz94" departLane="free" departSpeed="max"/>
  <trip id="1544" depart="13.62" from="D4" to="D7" type="DEFAULT_VEHTYPE" fromTaz="taz92" toTaz="taz94" departLane="free" departSpeed="max"/>
  <trip id="948" depart="13.64" from="D4" to="D5" type="DEFAULT_VEHTYPE" fromTaz="taz92" toTaz="taz93" departLane="free" departSpeed="max"/>
  <trip id="35" depart="13.76" from="D2" to="D5" type="DEFAULT_VEHTYPE" fromTaz="taz91" toTaz="taz93" departLane="free" departSpeed="max"/>
  <trip id="1545" depart="13.84" from="D4" to="D7" type="DEFAULT_VEHTYPE" fromTaz="taz92" toTaz="taz94" departLane="free" departSpeed="max"/>
  <trip id="1546" depart="14.07" from="D4" to="D7" type="DEFAULT_VEHTYPE" fromTaz="taz92" toTaz="taz94" departLane="free" departSpeed="max"/>
  <trip id="36" depart="14.15" from="D2" to="D5" type="DEFAULT_VEHTYPE" fromTaz="taz91" toTaz="taz93" departLane="free" departSpeed="max"/>
  <trip id="949" depart="14.17" from="D4" to="D5" type="DEFAULT_VEHTYPE" fromTaz="taz92" toTaz="taz93" departLane="free" departSpeed="max"/>
  <trip id="1547" depart="14.29" from="D4" to="D7" type="DEFAULT_VEHTYPE" fromTaz="taz92" toTaz="taz94" departLane="free" departSpeed="max"/>
  <trip id="1548" depart="14.52" from="D4" to="D7" type="DEFAULT_VEHTYPE" fromTaz="taz92" toTaz="taz94" departLane="free" departSpeed="max"/>
  <trip id="37" depart="14.53" from="D2" to="D5" type="DEFAULT_VEHTYPE" fromTaz="taz91" toTaz="taz93" departLane="free" departSpeed="max"/>
  <trip id="950" depart="14.71" from="D4" to="D5" type="DEFAULT_VEHTYPE" fromTaz="taz92" toTaz="taz93" departLane="free" departSpeed="max"/>
  <trip id="1549" depart="14.74" from="D4" to="D7" type="DEFAULT_VEHTYPE" fromTaz="taz92" toTaz="taz94" departLane="free" departSpeed="max"/>
  <trip id="38" depart="14.92" from="D2" to="D5" type="DEFAULT_VEHTYPE" fromTaz="taz91" toTaz="taz93" departLane="free" departSpeed="max"/>
  <trip id="1550" depart="14.97" from="D4" to="D7" type="DEFAULT_VEHTYPE" fromTaz="taz92" toTaz="taz94" departLane="free" departSpeed="max"/>
  <trip id="781" depart="15.10" from="D2" to="D7" type="DEFAULT_VEHTYPE" fromTaz="taz91" toTaz="taz94" departLane="free" departSpeed="max"/>
  <trip id="1551" depart="15.19" from="D4" to="D7" type="DEFAULT_VEHTYPE" fromTaz="taz92" toTaz="taz94" departLane="free" departSpeed="max"/>
  <trip id="951" depart="15.24" from="D4" to="D5" type="DEFAULT_VEHTYPE" fromTaz="taz92" toTaz="taz93" departLane="free" departSpeed="max"/>
  <trip id="39" depart="15.31" from="D2" to="D5" type="DEFAULT_VEHTYPE" fromTaz="taz91" toTaz="taz93" departLane="free" departSpeed="max"/>
  <trip id="1552" depart="15.42" from="D4" to="D7" type="DEFAULT_VEHTYPE" fromTaz="taz92" toTaz="taz94" departLane="free" departSpeed="max"/>
  <trip id="1553" depart="15.64" from="D4" to="D7" type="DEFAULT_VEHTYPE" fromTaz="taz92" toTaz="taz94" departLane="free" departSpeed="max"/>
  <trip id="40" depart="15.70" from="D2" to="D5" type="DEFAULT_VEHTYPE" fromTaz="taz91" toTaz="taz93" departLane="free" departSpeed="max"/>
  <trip id="952" depart="15.78" from="D4" to="D5" type="DEFAULT_VEHTYPE" fromTaz="taz92" toTaz="taz93" departLane="free" departSpeed="max"/>
  <trip id="1554" depart="15.87" from="D4" to="D7" type="DEFAULT_VEHTYPE" fromTaz="taz92" toTaz="taz94" departLane="free" departSpeed="max"/>
  <trip id="1555" depart="16.09" from="D4" to="D7" type="DEFAULT_VEHTYPE" fromTaz="taz92" toTaz="taz94" departLane="free" departSpeed="max"/>
  <trip id="41" depart="16.09" from="D2" to="D5" type="DEFAULT_VEHTYPE" fromTaz="taz91" toTaz="taz93" departLane="free" departSpeed="max"/>
  <trip id="953" depart="16.31" from="D4" to="D5" type="DEFAULT_VEHTYPE" fromTaz="taz92" toTaz="taz93" departLane="free" departSpeed="max"/>
  <trip id="1556" depart="16.32" from="D4" to="D7" type="DEFAULT_VEHTYPE" fromTaz="taz92" toTaz="taz94" departLane="free" departSpeed="max"/>
  <trip id="42" depart="16.47" from="D2" to="D5" type="DEFAULT_VEHTYPE" fromTaz="taz91" toTaz="taz93" departLane="free" departSpeed="max"/>
  <trip id="1557" depart="16.54" from="D4" to="D7" type="DEFAULT_VEHTYPE" fromTaz="taz92" toTaz="taz94" departLane="free" departSpeed="max"/>
  <trip id="1558" depart="16.77" from="D4" to="D7" type="DEFAULT_VEHTYPE" fromTaz="taz92" toTaz="taz94" departLane="free" departSpeed="max"/>
  <trip id="954" depart="16.84" from="D4" to="D5" type="DEFAULT_VEHTYPE" fromTaz="taz92" toTaz="taz93" departLane="free" departSpeed="max"/>
  <trip id="43" depart="16.86" from="D2" to="D5" type="DEFAULT_VEHTYPE" fromTaz="taz91" toTaz="taz93" departLane="free" departSpeed="max"/>
  <trip id="1559" depart="16.99" from="D4" to="D7" type="DEFAULT_VEHTYPE" fromTaz="taz92" toTaz="taz94" departLane="free" departSpeed="max"/>
  <trip id="782" depart="17.11" from="D2" to="D7" type="DEFAULT_VEHTYPE" fromTaz="taz91" toTaz="taz94" departLane="free" departSpeed="max"/>
  <trip id="1560" depart="17.22" from="D4" to="D7" type="DEFAULT_VEHTYPE" fromTaz="taz92" toTaz="taz94" departLane="free" departSpeed="max"/>
  <trip id="44" depart="17.25" from="D2" to="D5" type="DEFAULT_VEHTYPE" fromTaz="taz91" toTaz="taz93" departLane="free" departSpeed="max"/>
  <trip id="955" depart="17.38" from="D4" to="D5" type="DEFAULT_VEHTYPE" fromTaz="taz92" toTaz="taz93" departLane="free" departSpeed="max"/>
  <trip id="1561" depart="17.44" from="D4" to="D7" type="DEFAULT_VEHTYPE" fromTaz="taz92" toTaz="taz94" departLane="free" departSpeed="max"/>
  <trip id="45" depart="17.64" from="D2" to="D5" type="DEFAULT_VEHTYPE" fromTaz="taz91" toTaz="taz93" departLane="free" departSpeed="max"/>
  <trip id="1562" depart="17.67" from="D4" to="D7" type="DEFAULT_VEHTYPE" fromTaz="taz92" toTaz="taz94" departLane="free" departSpeed="max"/>
  <trip id="1563" depart="17.89" from="D4" to="D7" type="DEFAULT_VEHTYPE" fromTaz="taz92" toTaz="taz94" departLane="free" departSpeed="max"/>
  <trip id="956" depart="17.91" from="D4" to="D5" type="DEFAULT_VEHTYPE" fromTaz="taz92" toTaz="taz93" departLane="free" departSpeed="max"/>
  <trip id="46" depart="18.02" from="D2" to="D5" type="DEFAULT_VEHTYPE" fromTaz="taz91" toTaz="taz93" departLane="free" departSpeed="max"/>
  <trip id="1564" depart="18.12" from="D4" to="D7" type="DEFAULT_VEHTYPE" fromTaz="taz92" toTaz="taz94" departLane="free" departSpeed="max"/>
  <trip id="1565" depart="18.34" from="D4" to="D7" type="DEFAULT_VEHTYPE" fromTaz="taz92" toTaz="taz94" departLane="free" departSpeed="max"/>
  <trip id="47" depart="18.41" from="D2" to="D5" type="DEFAULT_VEHTYPE" fromTaz="taz91" toTaz="taz93" departLane="free" departSpeed="max"/>
  <trip id="957" depart="18.45" from="D4" to="D5" type="DEFAULT_VEHTYPE" fromTaz="taz92" toTaz="taz93" departLane="free" departSpeed="max"/>
  <trip id="1566" depart="18.57" from="D4" to="D7" type="DEFAULT_VEHTYPE" fromTaz="taz92" toTaz="taz94" departLane="free" departSpeed="max"/>
  <trip id="1567" depart="18.79" from="D4" to="D7" type="DEFAULT_VEHTYPE" fromTaz="taz92" toTaz="taz94" departLane="free" departSpeed="max"/>
  <trip id="48" depart="18.80" from="D2" to="D5" type="DEFAULT_VEHTYPE" fromTaz="taz91" toTaz="taz93" departLane="free" departSpeed="max"/>
  <trip id="958" depart="18.98" from="D4" to="D5" type="DEFAULT_VEHTYPE" fromTaz="taz92" toTaz="taz93" departLane="free" departSpeed="max"/>
  <trip id="1568" depart="19.02" from="D4" to="D7" type="DEFAULT_VEHTYPE" fromTaz="taz92" toTaz="taz94" departLane="free" departSpeed="max"/>
  <trip id="783" depart="19.13" from="D2" to="D7" type="DEFAULT_VEHTYPE" fromTaz="taz91" toTaz="taz94" departLane="free" departSpeed="max"/>
  <trip id="49" depart="19.19" from="D2" to="D5" type="DEFAULT_VEHTYPE" fromTaz="taz91" toTaz="taz93" departLane="free" departSpeed="max"/>
  <trip id="1569" depart="19.24" from="D4" to="D7" type="DEFAULT_VEHTYPE" fromTaz="taz92" toTaz="taz94" departLane="free" departSpeed="max"/>
  <trip id="1570" depart="19.47" from="D4" to="D7" type="DEFAULT_VEHTYPE" fromTaz="taz92" toTaz="taz94" departLane="free" departSpeed="max"/>
  <trip id="959" depart="19.52" from="D4" to="D5" type="DEFAULT_VEHTYPE" fromTaz="taz92" toTaz="taz93" departLane="free" departSpeed="max"/>
  <trip id="50" depart="19.57" from="D2" to="D5" type="DEFAULT_VEHTYPE" fromTaz="taz91" toTaz="taz93" departLane="free" departSpeed="max"/>
  <trip id="1571" depart="19.69" from="D4" to="D7" type="DEFAULT_VEHTYPE" fromTaz="taz92" toTaz="taz94" departLane="free" departSpeed="max"/>
  <trip id="1572" depart="19.92" from="D4" to="D7" type="DEFAULT_VEHTYPE" fromTaz="taz92" toTaz="taz94" departLane="free" departSpeed="max"/>
  <trip id="51" depart="19.96" from="D2" to="D5" type="DEFAULT_VEHTYPE" fromTaz="taz91" toTaz="taz93" departLane="free" departSpeed="max"/>
  <trip id="960" depart="20.05" from="D4" to="D5" type="DEFAULT_VEHTYPE" fromTaz="taz92" toTaz="taz93" departLane="free" departSpeed="max"/>
  <trip id="1573" depart="20.14" from="D4" to="D7" type="DEFAULT_VEHTYPE" fromTaz="taz92" toTaz="taz94" departLane="free" departSpeed="max"/>
  <trip id="52" depart="20.35" from="D2" to="D5" type="DEFAULT_VEHTYPE" fromTaz="taz91" toTaz="taz93" departLane="free" departSpeed="max"/>
  <trip id="1574" depart="20.37" from="D4" to="D7" type="DEFAULT_VEHTYPE" fromTaz="taz92" toTaz="taz94" departLane="free" departSpeed="max"/>
  <trip id="1575" depart="20.59" from="D4" to="D7" type="DEFAULT_VEHTYPE" fromTaz="taz92" toTaz="taz94" departLane="free" departSpeed="max"/>
  <trip id="961" depart="20.59" from="D4" to="D5" type="DEFAULT_VEHTYPE" fromTaz="taz92" toTaz="taz93" departLane="free" departSpeed="max"/>
  <trip id="53" depart="20.74" from="D2" to="D5" type="DEFAULT_VEHTYPE" fromTaz="taz91" toTaz="taz93" departLane="free" departSpeed="max"/>
  <trip id="1576" depart="20.82" from="D4" to="D7" type="DEFAULT_VEHTYPE" fromTaz="taz92" toTaz="taz94" departLane="free" departSpeed="max"/>
  <trip id="1577" depart="21.04" from="D4" to="D7" type="DEFAULT_VEHTYPE" fromTaz="taz92" toTaz="taz94" departLane="free" departSpeed="max"/>
  <trip id="962" depart="21.12" from="D4" to="D5" type="DEFAULT_VEHTYPE" fromTaz="taz92" toTaz="taz93" departLane="free" departSpeed="max"/>
  <trip id="54" depart="21.12" from="D2" to="D5" type="DEFAULT_VEHTYPE" fromTaz="taz91" toTaz="taz93" departLane="free" departSpeed="max"/>
  <trip id="784" depart="21.14" from="D2" to="D7" type="DEFAULT_VEHTYPE" fromTaz="taz91" toTaz="taz94" departLane="free" departSpeed="max"/>
  <trip id="1578" depart="21.27" from="D4" to="D7" type="DEFAULT_VEHTYPE" fromTaz="taz92" toTaz="taz94" departLane="free" departSpeed="max"/>
  <trip id="1579" depart="21.49" from="D4" to="D7" type="DEFAULT_VEHTYPE" fromTaz="taz92" toTaz="taz94" departLane="free" departSpeed="max"/>
  <trip id="55" depart="21.51" from="D2" to="D5" type="DEFAULT_VEHTYPE" fromTaz="taz91" toTaz="taz93" departLane="free" departSpeed="max"/>
  <trip id="963" depart="21.66" from="D4" to="D5" type="DEFAULT_VEHTYPE" fromTaz="taz92" toTaz="taz93" departLane="free" departSpeed="max"/>
  <trip id="1580" depart="21.72" from="D4" to="D7" type="DEFAULT_VEHTYPE" fromTaz="taz92" toTaz="taz94" departLane="free" departSpeed="max"/>
  <trip id="56" depart="21.90" from="D2" to="D5" type="DEFAULT_VEHTYPE" fromTaz="taz91" toTaz="taz93" departLane="free" departSpeed="max"/>
  <trip id="1581" depart="21.94" from="D4" to="D7" type="DEFAULT_VEHTYPE" fromTaz="taz92" toTaz="taz94" departLane="free" departSpeed="max"/>
  <trip id="1582" depart="22.17" from="D4" to="D7" type="DEFAULT_VEHTYPE" fromTaz="taz92" toTaz="taz94" departLane="free" departSpeed="max"/>
  <trip id="964" depart="22.19" from="D4" to="D5" type="DEFAULT_VEHTYPE" fromTaz="taz92" toTaz="taz93" departLane="free" departSpeed="max"/>
  <trip id="57" depart="22.29" from="D2" to="D5" type="DEFAULT_VEHTYPE" fromTaz="taz91" toTaz="taz93" departLane="free" departSpeed="max"/>
  <trip id="1583" depart="22.39" from="D4" to="D7" type="DEFAULT_VEHTYPE" fromTaz="taz92" toTaz="taz94" departLane="free" departSpeed="max"/>
  <trip id="1584" depart="22.62" from="D4" to="D7" type="DEFAULT_VEHTYPE" fromTaz="taz92" toTaz="taz94" departLane="free" departSpeed="max"/>