<?xml version='1.0' encoding='utf-8'?>
<routes>
  <trip id="1337" depart="0.13" from="D4" to="D7" type="DEFAULT_VEHTYPE" fromTaz="taz92" toTaz="taz94" departLane="free" departSpeed="max"/>
  <trip id="0" depart="0.21" from="D2" to="D5" type="DEFAULT_VEHTYPE" fromTaz="taz91" toTaz="taz93" departLane="free" departSpeed="max"/>
  <trip id="807" depart="0.28" from="D4" to="D5" type="DEFAULT_VEHTYPE" fromTaz="taz92" toTaz="taz93" departLane="free" departSpeed="max"/>
  <trip id="1338" depart="0.38" from="D4" to="D7" type="DEFAULT_VEHTYPE" fromTaz="taz92" toTaz="taz94" departLane="free" departSpeed="max"/>
  <trip id="1339" depart="0.63" from="D4" to="D7" type="DEFAULT_VEHTYPE" fromTaz="taz92" toTaz="taz94" departLane="free" departSpeed="max"/>
  <trip id="1" depart="0.64" from="D2" to="D5" type="DEFAULT_VEHTYPE" fromTaz="taz91" toTaz="taz93" departLane="free" departSpeed="max"/>
  <trip id="808" depart="0.85" from="D4" to="D5" type="DEFAULT_VEHTYPE" fromTaz="taz92" toTaz="taz93" departLane="free" departSpeed="max"/>
  <trip id="1340" depart="0.89" from="D4" to="D7" type="DEFAULT_VEHTYPE" fromTaz="taz92" toTaz="taz94" departLane="free" departSpeed="max"/>
  <trip id="2" depart="1.07" from="D2" to="D5" type="DEFAULT_VEHTYPE" fromTaz="taz91" toTaz="taz93" departLane="free" departSpeed="max"/>
  <trip id="1341" depart="1.14" from="D4" to="D7" type="DEFAULT_VEHTYPE" fromTaz="taz92" toTaz="taz94" departLane="free" departSpeed="max"/>
  <trip id="1342" depart="1.39" from="D4" to="D7" type="DEFAULT_VEHTYPE" fromTaz="taz92" toTaz="taz94" departLane="free" departSpeed="max"/>
  <trip id="809" depart="1.42" from="D4" to="D5" type="DEFAULT_VEHTYPE" fromTaz="taz92" toTaz="taz93" departLane="free" departSpeed="max"/>
  <trip id="703" depart="1.44" from="D2" to="D7" type="DEFAULT_VEHTYPE" fromTaz="taz91" toTaz="taz94" departLane="free" departSpeed="max"/>
  <trip id="3" depart="1.49" from="D2" to="D5" type="DEFAULT_VEHTYPE" fromTaz="taz91" toTaz="taz93" departLane="free" departSpeed="max"/>
  <trip id="1343" depart="1.64" from="D4" to="D7" type="DEFAULT_VEHTYPE" fromTaz="taz92" toTaz="taz94" departLane="free" departSpeed="max"/>
  <trip id="1344" depart="1.90" from="D4" to="D7" type="DEFAULT_VEHTYPE" fromTaz="taz92" toTaz="taz94" departLane="free" departSpeed="max"/>
  <trip id="4" depart="1.92" from="D2" to="D5" type="DEFAULT_VEHTYPE" fromTaz="taz91" toTaz="taz93" departLane="free" departSpeed="max"/>
  <trip id="810" depart="1.98" from="D4" to="D5" type="DEFAULT_VEHTYPE" fromTaz="taz92" toTaz="taz93" departLane="free" departSpeed="max"/>
  <trip id="1345" depart="2.15" from="D4" to="D7" type="DEFAULT_VEHTYPE" fromTaz="taz92" toTaz="taz94" departLane="free" departSpeed="max"/>
  <trip id="5" depart="2.35" from="D2" to="D5" type="DEFAULT_VEHTYPE" fromTaz="taz91" toTaz="taz93" departLane="free" departSpeed="max"/>
  <trip id="1346" depart="2.40" from="D4" to="D7" type="DEFAULT_VEHTYPE" fromTaz="taz92" toTaz="taz94" departLane="free" departSpeed="max"/>
  <trip id="811" depart="2.55" from="D4" to="D5" type="DEFAULT_VEHTYPE" fromTaz="taz92" toTaz="taz93" departLane="free" departSpeed="max"/>
  <trip id="1347" depart="2.66" from="D4" to="D7" type="DEFAULT_VEHTYPE" fromTaz="taz92" toTaz="taz94" departLane="free" departSpeed="max"/>
  <trip id="6" depart="2.77" from="D2" to="D5" type="DEFAULT_VEHTYPE" fromTaz="taz91" toTaz="taz93" departLane="free" departSpeed="max"/>
  <trip id="1348" depart="2.91" from="D4" to="D7" type="DEFAULT_VEHTYPE" fromTaz="taz92" toTaz="taz94" departLane="free" departSpeed="max"/>
  <trip id="812" depart="3.11" from="D4" to="D5" type="DEFAULT_VEHTYPE" fromTaz="taz92" toTaz="taz93" departLane="free" departSpeed="max"/>
  <trip id="1349" depart="3.16" from="D4" to="D7" type="DEFAULT_VEHTYPE" fromTaz="taz92" toTaz="taz94" departLane="free" departSpeed="max"/>
  <trip id="7" depart="3.20" from="D2" to="D5" type="DEFAULT_VEHTYPE" fromTaz="taz91" toTaz="taz93" departLane="free" departSpeed="max"/>
  <trip id="1350" depart="3.41" from="D4" to="D7" type="DEFAULT_VEHTYPE" fromTaz="taz92" toTaz="taz94" departLane="free" departSpeed="max"/>
  <trip id="8" depart="3.63" from="D2" to="D5" type="DEFAULT_VEHTYPE" fromTaz="taz91" toTaz="taz93" departLane="free" departSpeed="max"/>
  <trip id="1351" depart="3.67" from="D4" to="D7" type="DEFAULT_VEHTYPE" fromTaz="taz92" toTaz="taz94" departLane="free" departSpeed="max"/>
  <trip id="813" depart="3.68" from="D4" to="D5" type="DEFAULT_VEHTYPE" fromTaz="taz92" toTaz="taz93" departLane="free" departSpeed="max"/>
  <trip id="1352" depart="3.92" from="D4" to="D7" type="DEFAULT_VEHTYPE" fromTaz="taz92" toTaz="taz94" departLane="free" departSpeed="max"/>
  <trip id="9" depart="4.05" from="D2" to="D5" type="DEFAULT_VEHTYPE" fromTaz="taz91" toTaz="taz93" departLane="free" departSpeed="max"/>
  <trip id="1353" depart="4.17" from="D4" to="D7" type="DEFAULT_VEHTYPE" fromTaz="taz92" toTaz="taz94" departLane="free" departSpeed="max"/>
  <trip id="814" depart="4.25" from="D4" to="D5" type="DEFAULT_VEHTYPE" fromTaz="taz92" toTaz="taz93" departLane="free" departSpeed="max"/>
  <trip id="704" depart="4.33" from="D2" to="D7" type="DEFAULT_VEHTYPE" fromTaz="taz91" toTaz="taz94" departLane="free" departSpeed="max"/>
  <trip id="1354" depart="4.43" from="D4" to="D7" type="DEFAULT_VEHTYPE" fromTaz="taz92" toTaz="taz94" departLane="free" departSpeed="max"/>
  <trip id="10" depart="4.48" from="D2" to="D5" type="DEFAULT_VEHTYPE" fromTaz="taz91" toTaz="taz93" departLane="free" departSpeed="max"/>
  <trip id="1355" depart="4.68" from="D4" to="D7" type="DEFAULT_VEHTYPE" fromTaz="taz92" toTaz="taz94" departLane="free" departSpeed="max"/>
  <trip id="815" depart="4.81" from="D4" to="D5" type="DEFAULT_VEHTYPE" fromTaz="taz92" toTaz="taz93" departLane="free" departSpeed="max"/>
  <trip id="11" depart="4.91" from="D2" to="D5" type="DEFAULT_VEHTYPE" fromTaz="taz91" toTaz="taz93" departLane="free" departSpeed="max"/>
  <trip id="1356" depart="4.93" from="D4" to="D7" type="DEFAULT_VEHTYPE" fromTaz="taz92" toTaz="taz94" departLane="free" departSpeed="max"/>
  <trip id="1357" depart="5.19" from="D4" to="D7" type="DEFAULT_VEHTYPE" fromTaz="taz92" toTaz="taz94" departLane="free" departSpeed="max"/>
  <trip id="12" depart="5.33" from="D2" to="D5" type="DEFAULT_VEHTYPE" fromTaz="taz91" toTaz="taz93" departLane="free" departSpeed="max"/>
  <trip id="816" depart="5.38" from="D4" to="D5" type="DEFAULT_VEHTYPE" fromTaz="taz92" toTaz="taz93" departLane="free" departSpeed="max"/>
  <trip id="1358" depart="5.44" from="D4" to="D7" type="DEFAULT_VEHTYPE" fromTaz="taz92" toTaz="taz94" departLane="free" departSpeed="max"/>
  <trip id="1359" depart="5.69" from="D4" to="D7" type="DEFAULT_VEHTYPE" fromTaz="taz92" toTaz="taz94" departLane="free" departSpeed="max"/>
  <trip id="13" depart="5.76" from="D2" to="D5" type="DEFAULT_VEHTYPE" fromTaz="taz91" toTaz="taz93" departLane="free" departSpeed="max"/>
  <trip id="817" depart="5.94" from="D4" to="D5" type="DEFAULT_VEHTYPE" fromTaz="taz92" toTaz="taz93" departLane="free" departSpeed="max"/>
  <trip id="1360" depart="5.94" from="D4" to="D7" type="DEFAULT_VEHTYPE" fromTaz="taz92" toTaz="taz94" departLane="free" departSpeed="max"/>
  <trip id="14" depart="6.19" from="D2" to="D5" type="DEFAULT_VEHTYPE" fromTaz="taz91" toTaz="taz93" departLane="free" departSpeed="max"/>
  <trip id="1361" depart="6.20" from="D4" to="D7" type="DEFAULT_VEHTYPE" fromTaz="taz92" toTaz="taz94" departLane="free" departSpeed="max"/>
  <trip id="1362" depart="6.45" from="D4" to="D7" type="DEFAULT_VEHTYPE" fromTaz="taz92" toTaz="taz94" departLane="free" departSpeed="max"/>
  <trip id="818" depart="6.51" from="D4" to="D5" type="DEFAULT_VEHTYPE" fromTaz="taz92" toTaz="taz93" departLane="free" departSpeed="max"/>
  <trip id="15" depart="6.61" from="D2" to="D5" type="DEFAULT_VEHTYPE" fromTaz="taz91" toTaz="taz93" departLane="free" departSpeed="max"/>
  <trip id="1363" depart="6.70" from="D4" to="D7" type="DEFAULT_VEHTYPE" fromTaz="taz92" toTaz="taz94" departLane="free" departSpeed="max"/>
  <trip id="1364" depart="6.96" from="D4" to="D7" type="DEFAULT_VEHTYPE" fromTaz="taz92" toTaz="taz94" departLane="free" departSpeed="max"/>
  <trip id="16" depart="7.04" from="D2" to="D5" type="DEFAULT_VEHTYPE" fromTaz="taz91" toTaz="taz93" departLane="free" departSpeed="max"/>
  <trip id="819" depart="7.08" from="D4" to="D5" type="DEFAULT_VEHTYPE" fromTaz="taz92" toTaz="taz93" departLane="free" departSpeed="max"/>
  <trip id="1365" depart="7.21" from="D4" to="D7" type="DEFAULT_VEHTYPE" fromTaz="taz92" toTaz="taz94" departLane="free" departSpeed="max"/>
  <trip id="705" depart="7.21" from="D2" to="D7" type="DEFAULT_VEHTYPE" fromTaz="taz91" toTaz="taz94" departLane="free" departSpeed="max"/>
  <trip id="1366" depart="7.46" from="D4" to="D7" type="DEFAULT_VEHTYPE" fromTaz="taz92" toTaz="taz94" departLane="free" departSpeed="max"/>
  <trip id="17" depart="7.47" from="D2" to="D5" type="DEFAULT_VEHTYPE" fromTaz="taz91" toTaz="taz93" departLane="free" departSpeed="max"/>
  <trip id="820" depart="7.64" from="D4" to="D5" type="DEFAULT_VEHTYPE" fromTaz="taz92" toTaz="taz93" departLane="free" departSpeed="max"/>
  <trip id="1367" depart="7.72" from="D4" to="D7" type="DEFAULT_VEHTYPE" fromTaz="taz92" toTaz="taz94" departLane="free" departSpeed="max"/>
  <trip id="18" depart="7.89" from="D2" to="D5" type="DEFAULT_VEHTYPE" fromTaz="taz91" toTaz="taz93" departLane="free" departSpeed="max"/>
  <trip id="1368" depart="7.97" from="D4" to="D7" type="DEFAULT_VEHTYPE" fromTaz="taz92" toTaz="taz94" departLane="free" departSpeed="max"/>
  <trip id="821" depart="8.21" from="D4" to="D5" type="DEFAULT_VEHTYPE" fromTaz="taz92" toTaz="taz93" departLane="free" departSpeed="max"/>
  <trip id="1369" depart="8.22" from="D4" to="D7" type="DEFAULT_VEHTYPE" fromTaz="taz92" toTaz="taz94" departLane="free" departSpeed="max"/>
  <trip id="19" depart="8.32" from="D2" to="D5" type="DEFAULT_VEHTYPE" fromTaz="taz91" toTaz="taz93" departLane="free" departSpeed="max"/>
  <trip id="1370" depart="8.47" from="D4" to="D7" type="DEFAULT_VEHTYPE" fromTaz="taz92" toTaz="taz94" departLane="free" departSpeed="max"/>
  <trip id="1371" depart="8.73" from="D4" to="D7" type="DEFAULT_VEHTYPE" fromTaz="taz92" toTaz="taz94" departLane="free" departSpeed="max"/>
  <trip id="20" depart="8.75" from="D2" to="D5" type="DEFAULT_VEHTYPE" fromTaz="taz91" toTaz="taz93" departLane="free" departSpeed="max"/>
  <trip id="822" depart="8.77" from="D4" to="D5" type="DEFAULT_VEHTYPE" fromTaz="taz92" toTaz="taz93" departLane="free" departSpeed="max"/>
  <trip id="1372" depart="8.98" from="D4" to="D7" type="DEFAULT_VEHTYPE" fromTaz="taz92" toTaz="taz94" departLane="free" departSpeed="max"/>
  <trip id="21" depart="9.17" from="D2" to="D5" type="DEFAULT_VEHTYPE" fromTaz="taz91" toTaz="taz93" departLane="free" departSpeed="max"/>
  <trip id="1373" depart="9.23" from="D4" to="D7" type="DEFAULT_VEHTYPE" fromTaz="taz92" toTaz="taz94" departLane="free" departSpeed="max"/>
  <trip id="823" depart="9.34" from="D4" to="D5" type="DEFAULT_VEHTYPE" fromTaz="taz92" toTaz="taz93" departLane="free" departSpeed="max"/>
  <trip id="1374" depart="9.49" from="D4" to="D7" type="DEFAULT_VEHTYPE" fromTaz="taz92" toTaz="taz94" departLane="free" departSpeed="max"/>
  <trip id="22" depart="9.60" from="D2" to="D5" type="DEFAULT_VEHTYPE" fromTaz="taz91" toTaz="taz93" departLane="free" departSpeed="max"/>
  <trip id="1375" depart="9.74" from="D4" to="D7" type="DEFAULT_VEHTYPE" fromTaz="taz92" toTaz="taz94" departLane="free" departSpeed="max"/>
  <trip id="824" depart="9.91" from="D4" to="D5" type="DEFAULT_VEHTYPE" fromTaz="taz92" toTaz="taz93" departLane="free" departSpeed="max"/>
  <trip id="1376" depart="9.99" from="D4" to="D7" type="DEFAULT_VEHTYPE" fromTaz="taz92" toTaz="taz94" departLane="free" departSpeed="max"/>
  <trip id="23" depart="10.03" from="D2" to="D5" type="DEFAULT_VEHTYPE" fromTaz="taz91" toTaz="taz93" departLane="free" departSpeed="max"/>
  <trip id="706" depart="10.10" from="D2" to="D7" type="DEFAULT_VEHTYPE" fromTaz="taz91" toTaz="taz94" departLane="free" departSpeed="max"/>
  <trip id="1377" depart="10.24" from="D4" to="D7" type="DEFAULT_VEHTYPE" fromTaz="taz92" toTaz="taz94" departLane="free" departSpeed="max"/>
  <trip id="24" depart="10.46" from="D2" to="D5" type="DEFAULT_VEHTYPE" fromTaz="taz91" toTaz="taz93" departLane="free" departSpeed="max"/>
  <trip id="825" depart="10.47" from="D4" to="D5" type="DEFAULT_VEHTYPE" fromTaz="taz92" toTaz="taz93" departLane="free" departSpeed="max"/>
  <trip id="1378" depart="10.50" from="D4" to="D7" type="DEFAULT_VEHTYPE" fromTaz="taz92" toTaz="taz94" departLane="free" departSpeed="max"/>
  <trip id="1379" depart="10.75" from="D4" to="D7" type="DEFAULT_VEHTYPE" fromTaz="taz92" toTaz="taz94" departLane="free" departSpeed="max"/>
  <trip id="25" depart="10.88" from="D2" to="D5" type="DEFAULT_VEHTYPE" fromTaz="taz91" toTaz="taz93" departLane="free" departSpeed="max"/>
  <trip id="1380" depart="11.00" from="D4" to="D7" type="DEFAULT_VEHTYPE" fromTaz="taz92" toTaz="taz94" departLane="free" departSpeed="max"/>
  <trip id="826" depart="11.04" from="D4" to="D5" type="DEFAULT_VEHTYPE" fromTaz="taz92" toTaz="taz93" departLane="free" departSpeed="max"/>
  <trip id="1381" depart="11.26" from="D4" to="D7" type="DEFAULT_VEHTYPE" fromTaz="taz92" toTaz="taz94" departLane="free" departSpeed="max"/>
  <trip id="26" depart="11.31" from="D2" to="D5" type="DEFAULT_VEHTYPE" fromTaz="taz91" toTaz="taz93" departLane="free" departSpeed="max"/>
  <trip id="1382" depart="11.51" from="D4" to="D7" type="DEFAULT_VEHTYPE" fromTaz="taz92" toTaz="taz94" departLane="free" departSpeed="max"/>
  <trip id="827" depart="11.60" from="D4" to="D5" type="DEFAULT_VEHTYPE" fromTaz="taz92" toTaz="taz93" departLane="free" departSpeed="max"/>
  <trip id="27" depart="11.74" from="D2" to="D5" type="DEFAULT_VEHTYPE" fromTaz="taz91" toTaz="taz93" departLane="free" departSpeed="max"/>
  <trip id="1383" depart="11.76" from="D4" to="D7" type="DEFAULT_VEHTYPE" fromTaz="taz92" toTaz="taz94" departLane="free" departSpeed="max"/>
  <trip id="1384" depart="12.02" from="D4" to="D7" type="DEFAULT_VEHTYPE" fromTaz="taz92" toTaz="taz94" departLane="free" departSpeed="max"/>
  <trip id="28" depart="12.16" from="D2" to="D5" type="DEFAULT_VEHTYPE" fromTaz="taz91" toTaz="taz93" departLane="free" departSpeed="max"/>
  <trip id="828" depart="12.17" from="D4" to="D5" type="DEFAULT_VEHTYPE" fromTaz="taz92" toTaz="taz93" departLane="free" departSpeed="max"/>
  <trip id="1385" depart="12.27" from="D4" to="D7" type="DEFAULT_VEHTYPE" fromTaz="taz92" toTaz="taz94" departLane="free" departSpeed="max"/>
  <trip id="1386" depart="12.52" from="D4" to="D7" type="DEFAULT_VEHTYPE" fromTaz="taz92" toTaz="taz94" departLane="free" departSpeed="max"/>
  <trip id="29" depart="12.59" from="D2" to="D5" type="DEFAULT_VEHTYPE" fromTaz="taz91" toTaz="taz93" departLane="free" departSpeed="max"/>
  <trip id="829" depart="12.74" from="D4" to="D5" type="DEFAULT_VEHTYPE" fromTaz="taz92" toTaz="taz93" departLane="free" departSpeed="max"/>
  <trip id="1387" depart="12.77" from="D4" to="D7" type="DEFAULT_VEHTYPE" fromTaz="taz92" toTaz="taz94" departLane="free" departSpeed="max"/>
  <trip id="707" depart="12.98" from="D2" to="D7" type="DEFAULT_VEHTYPE" fromTaz="taz91" toTaz="taz94" departLane="free" departSpeed="max"/>
  <trip id="30" depart="13.02" from="D2" to="D5" type="DEFAULT_VEHTYPE" fromTaz="taz91" toTaz="taz93" departLane="free" departSpeed="max"/>
  <trip id="1388" depart="13.03" from="D4" to="D7" type="DEFAULT_VEHTYPE" fromTaz="taz92" toTaz="taz94" departLane="free" departSpeed="max"/>
  <trip id="1389" depart="13.28" from="D4" to="D7" type="DEFAULT_VEHTYPE" fromTaz="taz92" toTaz="taz94" departLane="free" departSpeed="max"/>
  <trip id="830" depart="13.30" from="D4" to="D5" type="DEFAULT_VEHTYPE" fromTaz="taz92" toTaz="taz93" departLane="free" departSpeed="max"/>
  <trip id="31" depart="13.44" from="D2" to="D5" type="DEFAULT_VEHTYPE" fromTaz="taz91" toTaz="taz93" departLane="free" departSpeed="max"/>
  <trip id="1390" depart="13.53" from="D4" to="D7" type="DEFAULT_VEHTYPE" fromTaz="taz92" toTaz="taz94" departLane="free" departSpeed="max"/>
  <trip id="1391" depart="13.79" from="D4" to="D7" type="DEFAULT_VEHTYPE" fromTaz="taz92" toTaz="taz94" departLane="free" departSpeed="max"/>
  <trip id="831" depart="13.87" from="D4" to="D5" type="DEFAULT_VEHTYPE" fromTaz="taz92" toTaz="taz93" departLane="free" departSpeed="max"/>
  <trip id="32" depart="13.87" from="D2" to="D5" type="DEFAULT_VEHTYPE" fromTaz="taz91" toTaz="taz93" departLane="free" departSpeed="max"/>
  <trip id="1392" depart="14.04" from="D4" to="D7" type="DEFAULT_VEHTYPE" fromTaz="taz92" toTaz="taz94" departLane="free" departSpeed="max"/>
  <trip id="1393" depart="14.29" from="D4" to="D7" type="DEFAULT_VEHTYPE" fromTaz="taz92" toTaz="taz94" departLane="free" departSpeed="max"/>
  <trip id="33" depart="14.30" from="D2" to="D5" type="DEFAULT_VEHTYPE" fromTaz="taz91" toTaz="taz93" departLane="free" departSpeed="max"/>
  <trip id="832" depart="14.43" from="D4" to="D5" type="DEFAULT_VEHTYPE" fromTaz="taz92" toTaz="taz93" departLane="free" departSpeed="max"/>
  <trip id="1394" depart="14.54" from="D4" to="D7" type="DEFAULT_VEHTYPE" fromTaz="taz92" toTaz="taz94" departLane="free" departSpeed="max"/>
  <trip id="34" depart="14.72" from="D2" to="D5" type="DEFAULT_VEHTYPE" fromTaz="taz91" toTaz="taz93" departLane="free" departSpeed="max"/>
  <trip id="1395" depart="14.80" from="D4" to="D7" type="DEFAULT_VEHTYPE" fromTaz="taz92" toTaz="taz94" departLane="free" departSpeed="max"/>
  <trip id="833" depart="15.00" from="D4" to="D5" type="DEFAULT_VEHTYPE" fromTaz="taz92" toTaz="taz93" departLane="free" departSpeed="max"/>
  <trip id="1396" depart="15.05" from="D4" to="D7" type="DEFAULT_VEHTYPE" fromTaz="taz92" toTaz="taz94" departLane="free" departSpeed="max"/>
  <trip id="35" depart="15.15" from="D2" to="D5" type="DEFAULT_VEHTYPE" fromTaz="taz91" toTaz="taz93" departLane="free" departSpeed="max"/>
  <trip id="1397" depart="15.30" from="D4" to="D7" type="DEFAULT_VEHTYPE" fromTaz="taz92" toTaz="taz94" departLane="free" departSpeed="max"/>
  <trip id="1398" depart="15.56" from="D4" to="D7" type="DEFAULT_VEHTYPE" fromTaz="taz92" toTaz="taz94" departLane="free" departSpeed="max"/>
  <trip id="834" depart="15.57" from="D4" to="D5" type="DEFAULT_VEHTYPE" fromTaz="taz92" toTaz="taz93" departLane="free" departSpeed="max"/>
  <trip id="36" depart="15.58" from="D2" to="D5" type="DEFAULT_VEHTYPE" fromTaz="taz91" toTaz="taz93" departLane="free" departSpeed="max"/>
  <trip id="1399" depart="15.81" from="D4" to="D7" type="DEFAULT_VEHTYPE" fromTaz="taz92" toTaz="taz94" departLane="free" departSpeed="max"/>
  <trip id="708" depart="15.87" from="D2" to="D7" type="DEFAULT_VEHTYPE" fromTaz="taz91" toTaz="taz94" departLane="free" departSpeed="max"/>
  <trip id="37" depart="16.00" from="D2" to="D5" type="DEFAULT_VEHTYPE" fromTaz="taz91" toTaz="taz93" departLane="free" departSpeed="max"/>
  <trip id="1400" depart="16.06" from="D4" to="D7" type="DEFAULT_VEHTYPE" fromTaz="taz92" toTaz="taz94" departLane="free" departSpeed="max"/>
  <trip id="835" depart="16.13" from="D4" to="D5" type="DEFAULT_VEHTYPE" fromTaz="taz92" toTaz="taz93" departLane="free" departSpeed="max"/>
  <trip id="1401" depart="16.32" from="D4" to="D7" type="DEFAULT_VEHTYPE" fromTaz="taz92" toTaz="taz94" departLane="free" departSpeed="max"/>
  <trip id="38" depart="16.43" from="D2" to="D5" type="DEFAULT_VEHTYPE" fromTaz="taz91" toTaz="taz93" departLane="free" departSpeed="max"/>
  <trip id="1402" depart="16.57" from="D4" to="D7" type="DEFAULT_VEHTYPE" fromTaz="taz92" toTaz="taz94" departLane="free" departSpeed="max"/>
  <trip id="836" depart="16.70" from="D4" to="D5" type="DEFAULT_VEHTYPE" fromTaz="taz92" toTaz="taz93" departLane="free" departSpeed="max"/>
  <trip id="1403" depart="16.82" from="D4" to="D7" type="DEFAULT_VEHTYPE" fromTaz="taz92" toTaz="taz94" departLane="free" departSpeed="max"/>
  <trip id="39" depart="16.86" from="D2" to="D5" type="DEFAULT_VEHTYPE" fromTaz="taz91" toTaz="taz93" departLane="free" departSpeed="max"/>
  <trip id="1404" depart="17.07" from="D4" to="D7" type="DEFAULT_VEHTYPE" fromTaz="taz92" toTaz="taz94" departLane="free" departSpeed="max"/>
  <trip id="837" depart="17.26" from="D4" to="D5" type="DEFAULT_VEHTYPE" fromTaz="taz92" toTaz="taz93" departLane="free" departSpeed="max"/>
  <trip id="40" depart="17.28" from="D2" to="D5" type="DEFAULT_VEHTYPE" fromTaz="taz91" toTaz="taz93" departLane="free" departSpeed="max"/>
  <trip id="1405" depart="17.33" from="D4" to="D7" type="DEFAULT_VEHTYPE" fromTaz="taz92" toTaz="taz94" departLane="free" departSpeed="max"/>
  <trip id="1406" depart="17.58" from="D4" to="D7" type="DEFAULT_VEHTYPE" fromTaz="taz92" toTaz="taz94" departLane="free" departSpeed="max"/>
  <trip id="41" depart="17.71" from="D2" to="D5" type="DEFAULT_VEHTYPE" fromTaz="taz91" toTaz="taz93" departLane="free" departSpeed="max"/>
  <trip id="838" depart="17.83" from="D4" to="D5" type="DEFAULT_VEHTYPE" fromTaz="taz92" toTaz="taz93" departLane="free" departSpeed="max"/>
  <trip id="1407" depart="17.83" from="D4" to="D7" type="DEFAULT_VEHTYPE" fromTaz="taz92" toTaz="taz94" departLane="free" departSpeed="max"/>
  <trip id="1408" depart="18.09" from="D4" to="D7" type="DEFAULT_VEHTYPE" fromTaz="taz92" toTaz="taz94" departLane="free" departSpeed="max"/>
  <trip id="42" depart="18.14" from="D2" to="D5" type="DEFAULT_VEHTYPE" fromTaz="taz91" toTaz="taz93" departLane="free" departSpeed="max"/>
  <trip id="1409" depart="18.34" from="D4" to="D7" type="DEFAULT_VEHTYPE" fromTaz="taz92" toTaz="taz94" departLane="free" departSpeed="max"/>
  <trip id="839" depart="18.40" from="D4" to="D5" type="DEFAULT_VEHTYPE" fromTaz="taz92" toTaz="taz93" departLane="free" departSpeed="max"/>
  <trip id="43" depart="18.56" from="D2" to="D5" type="DEFAULT_VEHTYPE" fromTaz="taz91" toTaz="taz93" departLane="free" departSpeed="max"/>
  <trip id="1410" depart="18.59" from="D4" to="D7" type="DEFAULT_VEHTYPE" fromTaz="taz92" toTaz="taz94" departLane="free" departSpeed="max"/>
  <trip id="709" depart="18.75" from="D2" to="D7" type="DEFAULT_VEHTYPE" fromTaz="taz91" toTaz="taz94" departLane="free" departSpeed="max"/>
  <trip id="1411" depart="18.84" from="D4" to="D7" type="DEFAULT_VEHTYPE" fromTaz="taz92" toTaz="taz94" departLane="free" departSpeed="max"/>
  <trip id="840" depart="18.96" from="D4" to="D5" type="DEFAULT_VEHTYPE" fromTaz="taz92" toTaz="taz93" departLane="free" departSpeed="max"/>
  <trip id="44" depart="18.99" from="D2" to="D5" type="DEFAULT_VEHTYPE" fromTaz="taz91" toTaz="taz93" departLane="free" departSpeed="max"/>
  <trip id="1412" depart="19.10" from="D4" to="D7" type="DEFAULT_VEHTYPE" fromTaz="taz92" toTaz="taz94" departLane="free" departSpeed="max"/>
  <trip id="1413" depart="19.35" from="D4" to="D7" type="DEFAULT_VEHTYPE" fromTaz="taz92" toTaz="taz94" departLane="free" departSpeed="max"/>
  <trip id="45" depart="19.42" from="D2" to="D5" type="DEFAULT_VEHTYPE" fromTaz="taz91" toTaz="taz93" departLane="free" departSpeed="max"/>
  <trip id="841" depart="19.53" from="D4" to="D5" type="DEFAULT_VEHTYPE" fromTaz="taz92" toTaz="taz93" departLane="free" departSpeed="max"/>
  <trip id="1414" depart="19.60" from="D4" to="D7" type="DEFAULT_VEHTYPE" fromTaz="taz92" toTaz="taz94" departLane="free" departSpeed="max"/>
  <trip id="46" depart="19.84" from="D2" to="D5" type="DEFAULT_VEHTYPE" fromTaz="taz91" toTaz="taz93" departLane="free" departSpeed="max"/>
  <trip id="1415" depart="19.86" from="D4" to="D7" type="DEFAULT_VEHTYPE" fromTaz="taz92" toTaz="taz94" departLane="free" departSpeed="max"/>
  <trip id="842" depart="20.09" from="D4" to="D5" type="DEFAULT_VEHTYPE" fromTaz="taz92" toTaz="taz93" departLane="free" departSpeed="max"/>
  <trip id="1416" depart="20.11" from="D4" to="D7" type="DEFAULT_VEHTYPE" fromTaz="taz92" toTaz="taz94" departLane="free" departSpeed="max"/>
  <trip id="47" depart="20.27" from="D2" to="D5" type="DEFAULT_VEHTYPE" fromTaz="taz91" toTaz="taz93" departLane="free" departSpeed="max"/>
  <trip id="1417" depart="20.36" from="D4" to="D7" type="DEFAULT_VEHTYPE" fromTaz="taz92" toTaz="taz94" departLane="free" departSpeed="max"/>
  <trip id="1418" depart="20.62" from="D4" to="D7" type="DEFAULT_VEHTYPE" fromTaz="taz92" toTaz="taz94" departLane="free" departSpeed="max"/>
  <trip id="843" depart="20.66" from="D4" to="D5" type="DEFAULT_VEHTYPE" fromTaz="taz92" toTaz="taz93" departLane="free" departSpeed="max"/>
  <trip id="48" depart="20.70" from="D2" to="D5" type="DEFAULT_VEHTYPE" fromTaz="taz91" toTaz="taz93" departLane="free" departSpeed="max"/>
  <trip id="1419" depart="20.87" from="D4" to="D7" type="DEFAULT_VEHTYPE" fromTaz="taz92" toTaz="taz94" departLane="free" departSpeed="max"/>
  <trip id="49" depart="21.12" from="D2" to="D5" type="DEFAULT_VEHTYPE" fromTaz="taz91" toTaz="taz93" departLane="free" departSpeed="max"/>
  <trip id="1420" depart="21.12" from="D4" to="D7" type="DEFAULT_VEHTYPE" fromTaz="taz92" toTaz="taz94" departLane="free" departSpeed="max"/>
  <trip id="844" depart="21.23" from="D4" to="D5" type="DEFAULT_VEHTYPE" fromTaz="taz92" toTaz="taz93" departLane="free" departSpeed="max"/>
  <trip id="1421" depart="21.37" from="D4" to="D7" type="DEFAULT_VEHTYPE" fromTaz="taz92" toTaz="taz94" departLane="free" departSpeed="max"/>
  <trip id="50" depart="21.55" from="D2" to="D5" type="DEFAULT_VEHTYPE" fromTaz="taz91" toTaz="taz93" departLane="free" departSpeed="max"/>
  <trip id="1422" depart="21.63" from="D4" to="D7" type="DEFAULT_VEHTYPE" fromTaz="taz92" toTaz="taz94" departLane="free" departSpeed="max"/>
  <trip id="710" depart="21.63" from="D2" to="D7" type="DEFAULT_VEHTYPE" fromTaz="taz91" toTaz="taz94" departLane="free" departSpeed="max"/>
  <trip id="845" depart="21.79" from="D4" to="D5" type="DEFAULT_VEHTYPE" fromTaz="taz92" toTaz="taz93" departLane="free" departSpeed="max"/>
  <trip id="1423" depart="21.88" from="D4" to="D7" type="DEFAULT_VEHTYPE" fromTaz="taz92" toTaz="taz94" departLane="free" departSpeed="max"/>
  <trip id="51" depart="21.98" from="D2" to="D5" type="DEFAULT_VEHTYPE" fromTaz="taz91" toTaz="taz93" departLane="free" departSpeed="max"/>
  <trip id="1424" depart="22.13" from="D4" to="D7" type="DEFAULT_VEHTYPE" fromTaz="taz92" toTaz="taz94" departLane="free" departSpeed="max"/>
  <trip id="846" depart="22.36" from="D4" to="D5" type="DEFAULT_VEHTYPE" fromTaz="taz92" toTaz="taz93" departLane="free" departSpeed="max"/>
  <trip id="1425" depart="22.39" from="D4" to="D7" type="DEFAULT_VEHTYPE" fromTaz="taz92" toTaz="taz94" departLane="free" departSpeed="max"/>
  <trip id="52" depart="22.40" from="D2" to="D5" type="DEFAULT_VEHTYPE" fromTaz="taz91" toTaz="taz93" departLane="free" departSpeed="max"/>
  <trip id="1426" depart="22.64" from="D4" to="D7" type="DEFAULT_VEHTYPE" fromTaz="taz92" toTaz="taz94" departLane="free" departSpeed="max"/>
  <trip id="53" depart="22.83" from="D2" to="D5" type="DEFAULT_VEHTYPE" fromTaz="taz91" toTaz="taz93" departLane="free" departSpeed="max"/>
  <trip id="1427" depart="22.89" from="D4" to="D7" type="DEFAULT_VEHTYPE" fromTaz="taz92" toTaz="taz94" departLane="free" departSpeed="max"/>
  <trip id="847" depart="22.92" from="D4" to="D5" type="DEFAULT_VEHTYPE" fromTaz="taz92" toTaz="taz93" departLane="free" departSpeed="max"/>
  <trip id="1428" depart="23.15" from="D4" to="D7" type="DEFAULT_VEHTYPE" fromTaz="taz92" toTaz="taz94" departLane="free" departSpeed="max"/>
  <trip id="54" depart="23.26" from="D2" to="D5" type="DEFAULT_VEHTYPE" fromTaz="taz91" toTaz="taz93" departLane="free" departSpeed="max"/>
  <trip id="1429" depart="23.40" from="D4" to="D7" type="DEFAULT_VEHTYPE" fromTaz="taz92" toTaz="taz94" departLane="free" departSpeed="max"/>
  <trip id="848" depart="23.49" from="D4" to="D5" type="DEFAULT_VEHTYPE" fromTaz="taz92" toTaz="taz93" departLane="free" departSpeed="max"/>
  <trip id="1430" depart="23.65" from="D4" to="D7" type="DEFAULT_VEHTYPE" fromTaz="taz92" toTaz="taz94" departLane="free" departSpeed="max"/>
  <trip id="55" depart="23.68" from="D2" to="D5" type="DEFAULT_VEHTYPE" fromTaz="taz91" toTaz="taz93" departLane="free" departSpeed="max"/>
  <trip id="1431" depart="23.90" from="D4" to="D7" type="DEFAULT_VEHTYPE" fromTaz="taz92" toTaz="taz94" departLane="free" departSpeed="max"/>
  <trip id="849" depart="24.06" from="D4" to="D5" type="DEFAULT_VEHTYPE" fromTaz="taz92" toTaz="taz93" departLane="free" departSpeed="max"/>
  <trip id="56" depart="24.11" from="D2" to="D5" type="DEFAULT_VEHTYPE" fromTaz="taz91" toTaz="taz93" departLane="free" departSpeed="max"/>
  <trip id="1432" depart="24.16" from="D4" to="D7" type="DEFAULT_VEHTYPE" fromTaz="taz92" toTaz="taz94" departLane="free" departSpeed="max"/>
  <trip id="1433" depart="24.41" from="D4" to="D7" type="DEFAULT_VEHTYPE" fromTaz="taz92" toTaz="taz94" departLane="free" departSpeed="max"/>
  <trip id="711" depart="24.52" from="D2" to="D7" type="DEFAULT_VEHTYPE" fromTaz="taz91" toTaz="taz94" departLane="free" departSpeed="max"/>
  <trip id="57" depart="24.54" from="D2" to="D5" type="DEFAULT_VEHTYPE" fromTaz="taz91" toTaz="taz93" departLane="free" departSpeed="max"/>
  <trip id="850" depart="24.62" from="D4" to="D5" type="DEFAULT_VEHTYPE" fromTaz="taz92" toTaz="taz93" departLane="free" departSpeed="max"/>
  <trip id="1434" depart="24.66" from="D4" to="D7" type="DEFAULT_VEHTYPE" fromTaz="taz92" toTaz="taz94" departLane="free" departSpeed="max"/>
  <trip id="1435" depart="24.92" from="D4" to="D7" type="DEFAULT_VEHTYPE" fromTaz="taz92" toTaz="taz94" departLane="free" departSpeed="max"/>
  <trip id="58" depart="24.96" from="D2" to="D5" type="DEFAULT_VEHTYPE" fromTaz="taz91" toTaz="taz93" departLane="free" departSpeed="max"/>
  <trip id="1436" depart="25.17" from="D4" to="D7" type="DEFAULT_VEHTYPE" fromTaz="taz92" toTaz="taz94" departLane="free" departSpeed="max"/>