<?xml version='1.0' encoding='utf-8'?>
<routes>
  <trip id="1460" depart="0.13" from="D4" to="D7" type="DEFAULT_VEHTYPE" fromTaz="taz92" toTaz="taz94" departLane="free" departSpeed="max"/>
  <trip id="0" depart="0.19" from="D2" to="D5" type="DEFAULT_VEHTYPE" fromTaz="taz91" toTaz="taz93" departLane="free" departSpeed="max"/>
  <trip id="1461" depart="0.40" from="D4" to="D7" type="DEFAULT_VEHTYPE" fromTaz="taz92" toTaz="taz94" departLane="free" departSpeed="max"/>
  <trip id="1116" depart="0.44" from="D4" to="D5" type="DEFAULT_VEHTYPE" fromTaz="taz92" toTaz="taz93" departLane="free" departSpeed="max"/>
  <trip id="802" depart="0.48" from="D2" to="D7" type="DEFAULT_VEHTYPE" fromTaz="taz91" toTaz="taz94" departLane="free" departSpeed="max"/>
  <trip id="1" depart="0.56" from="D2" to="D5" type="DEFAULT_VEHTYPE" fromTaz="taz91" toTaz="taz93" departLane="free" departSpeed="max"/>
  <trip id="1462" depart="0.67" from="D4" to="D7" type="DEFAULT_VEHTYPE" fromTaz="taz92" toTaz="taz94" departLane="free" departSpeed="max"/>
  <trip id="1463" depart="0.93" from="D4" to="D7" type="DEFAULT_VEHTYPE" fromTaz="taz92" toTaz="taz94" departLane="free" departSpeed="max"/>
  <trip id="2" depart="0.94" from="D2" to="D5" type="DEFAULT_VEHTYPE" fromTaz="taz91" toTaz="taz93" departLane="free" departSpeed="max"/>
  <trip id="1464" depart="1.20" from="D4" to="D7" type="DEFAULT_VEHTYPE" fromTaz="taz92" toTaz="taz94" departLane="free" departSpeed="max"/>
  <trip id="3" depart="1.31" from="D2" to="D5" type="DEFAULT_VEHTYPE" fromTaz="taz91" toTaz="taz93" departLane="free" departSpeed="max"/>
  <trip id="1117" depart="1.31" from="D4" to="D5" type="DEFAULT_VEHTYPE" fromTaz="taz92" toTaz="taz93" departLane="free" departSpeed="max"/>
  <trip id="803" depart="1.43" from="D2" to="D7" type="DEFAULT_VEHTYPE" fromTaz="taz91" toTaz="taz94" departLane="free" departSpeed="max"/>
  <trip id="1465" depart="1.47" from="D4" to="D7" type="DEFAULT_VEHTYPE" fromTaz="taz92" toTaz="taz94" departLane="free" departSpeed="max"/>
  <trip id="4" depart="1.68" from="D2" to="D5" type="DEFAULT_VEHTYPE" fromTaz="taz91" toTaz="taz93" departLane="free" departSpeed="max"/>
  <trip id="1466" depart="1.73" from="D4" to="D7" type="DEFAULT_VEHTYPE" fromTaz="taz92" toTaz="taz94" departLane="free" departSpeed="max"/>
  <trip id="1467" depart="2.00" from="D4" to="D7" type="DEFAULT_VEHTYPE" fromTaz="taz92" toTaz="taz94" departLane="free" departSpeed="max"/>
  <trip id="5" depart="2.06" from="D2" to="D5" type="DEFAULT_VEHTYPE" fromTaz="taz91" toTaz="taz93" departLane="free" departSpeed="max"/>
  <trip id="1118" depart="2.18" from="D4" to="D5" type="DEFAULT_VEHTYPE" fromTaz="taz92" toTaz="taz93" departLane="free" departSpeed="max"/>
  <trip id="1468" depart="2.27" from="D4" to="D7" type="DEFAULT_VEHTYPE" fromTaz="taz92" toTaz="taz94" departLane="free" departSpeed="max"/>
  <trip id="804" depart="2.39" from="D2" to="D7" type="DEFAULT_VEHTYPE" fromTaz="taz91" toTaz="taz94" departLane="free" departSpeed="max"/>
  <trip id="6" depart="2.43" from="D2" to="D5" type="DEFAULT_VEHTYPE" fromTaz="taz91" toTaz="taz93" departLane="free" departSpeed="max"/>
  <trip id="1469" depart="2.54" from="D4" to="D7" type="DEFAULT_VEHTYPE" fromTaz="taz92" toTaz="taz94" departLane="free" departSpeed="max"/>
  <trip id="1470" depart="2.80" from="D4" to="D7" type="DEFAULT_VEHTYPE" fromTaz="taz92" toTaz="taz94" departLane="free" departSpeed="max"/>
  <trip id="7" depart="2.81" from="D2" to="D5" type="DEFAULT_VEHTYPE" fromTaz="taz91" toTaz="taz93" departLane="free" departSpeed="max"/>
  <trip id="1119" depart="3.05" from="D4" to="D5" type="DEFAULT_VEHTYPE" fromTaz="taz92" toTaz="taz93" departLane="free" departSpeed="max"/>
  <trip id="1471" depart="3.07" from="D4" to="D7" type="DEFAULT_VEHTYPE" fromTaz="taz92" toTaz="taz94" departLane="free" departSpeed="max"/>
  <trip id="8" depart="3.18" from="D2" to="D5" type="DEFAULT_VEHTYPE" fromTaz="taz91" toTaz="taz93" departLane="free" departSpeed="max"/>
  <trip id="805" depart="3.34" from="D2" to="D7" type="DEFAULT_VEHTYPE" fromTaz="taz91" toTaz="taz94" departLane="free" departSpeed="max"/>
  <trip id="1472" depart="3.34" from="D4" to="D7" type="DEFAULT_VEHTYPE" fromTaz="taz92" toTaz="taz94" departLane="free" departSpeed="max"/>
  <trip id="9" depart="3.55" from="D2" to="D5" type="DEFAULT_VEHTYPE" fromTaz="taz91" toTaz="taz93" departLane="free" departSpeed="max"/>
  <trip id="1473" depart="3.60" from="D4" to="D7" type="DEFAULT_VEHTYPE" fromTaz="taz92" toTaz="taz94" departLane="free" departSpeed="max"/>
  <trip id="1474" depart="3.87" from="D4" to="D7" type="DEFAULT_VEHTYPE" fromTaz="taz92" toTaz="taz94" departLane="free" departSpeed="max"/>
  <trip id="1120" depart="3.92" from="D4" to="D5" type="DEFAULT_VEHTYPE" fromTaz="taz92" toTaz="taz93" departLane="free" departSpeed="max"/>
  <trip id="10" depart="3.93" from="D2" to="D5" type="DEFAULT_VEHTYPE" fromTaz="taz91" toTaz="taz93" departLane="free" departSpeed="max"/>
  <trip id="1475" depart="4.14" from="D4" to="D7" type="DEFAULT_VEHTYPE" fromTaz="taz92" toTaz="taz94" departLane="free" departSpeed="max"/>
  <trip id="806" depart="4.30" from="D2" to="D7" type="DEFAULT_VEHTYPE" fromTaz="taz91" toTaz="taz94" departLane="free" departSpeed="max"/>
  <trip id="11" depart="4.30" from="D2" to="D5" type="DEFAULT_VEHTYPE" fromTaz="taz91" toTaz="taz93" departLane="free" departSpeed="max"/>
  <trip id="1476" depart="4.40" from="D4" to="D7" type="DEFAULT_VEHTYPE" fromTaz="taz92" toTaz="taz94" departLane="free" departSpeed="max"/>
  <trip id="1477" depart="4.67" from="D4" to="D7" type="DEFAULT_VEHTYPE" fromTaz="taz92" toTaz="taz94" departLane="free" departSpeed="max"/>
  <trip id="12" depart="4.68" from="D2" to="D5" type="DEFAULT_VEHTYPE" fromTaz="taz91" toTaz="taz93" departLane="free" departSpeed="max"/>
  <trip id="1121" depart="4.80" from="D4" to="D5" type="DEFAULT_VEHTYPE" fromTaz="taz92" toTaz="taz93" departLane="free" departSpeed="max"/>
  <trip id="1478" depart="4.94" from="D4" to="D7" type="DEFAULT_VEHTYPE" fromTaz="taz92" toTaz="taz94" departLane="free" departSpeed="max"/>
  <trip id="13" depart="5.05" from="D2" to="D5" type="DEFAULT_VEHTYPE" fromTaz="taz91" toTaz="taz93" departLane="free" departSpeed="max"/>
  <trip id="1479" depart="5.20" from="D4" to="D7" type="DEFAULT_VEHTYPE" fromTaz="taz92" toTaz="taz94" departLane="free" departSpeed="max"/>
  <trip id="807" depart="5.25" from="D2" to="D7" type="DEFAULT_VEHTYPE" fromTaz="taz91" toTaz="taz94" departLane="free" departSpeed="max"/>
  <trip id="14" depart="5.42" from="D2" to="D5" type="DEFAULT_VEHTYPE" fromTaz="taz91" toTaz="taz93" departLane="free" departSpeed="max"/>
  <trip id="1480" depart="5.47" from="D4" to="D7" type="DEFAULT_VEHTYPE" fromTaz="taz92" toTaz="taz94" departLane="free" departSpeed="max"/>
  <trip id="1122" depart="5.67" from="D4" to="D5" type="DEFAULT_VEHTYPE" fromTaz="taz92" toTaz="taz93" departLane="free" departSpeed="max"/>
  <trip id="1481" depart="5.74" from="D4" to="D7" type="DEFAULT_VEHTYPE" fromTaz="taz92" toTaz="taz94" departLane="free" departSpeed="max"/>
  <trip id="15" depart="5.80" from="D2" to="D5" type="DEFAULT_VEHTYPE" fromTaz="taz91" toTaz="taz93" departLane="free" departSpeed="max"/>
  <trip id="1482" depart="6.01" from="D4" to="D7" type="DEFAULT_VEHTYPE" fromTaz="taz92" toTaz="taz94" departLane="free" departSpeed="max"/>
  <trip id="16" depart="6.17" from="D2" to="D5" type="DEFAULT_VEHTYPE" fromTaz="taz91" toTaz="taz93" departLane="free" departSpeed="max"/>
  <trip id="808" depart="6.21" from="D2" to="D7" type="DEFAULT_VEHTYPE" fromTaz="taz91" toTaz="taz94" departLane="free" departSpeed="max"/>
  <trip id="1483" depart="6.27" from="D4" to="D7" type="DEFAULT_VEHTYPE" fromTaz="taz92" toTaz="taz94" departLane="free" departSpeed="max"/>
  <trip id="1484" depart="6.54" from="D4" to="D7" type="DEFAULT_VEHTYPE" fromTaz="taz92" toTaz="taz94" departLane="free" departSpeed="max"/>
  <trip id="1123" depart="6.54" from="D4" to="D5" type="DEFAULT_VEHTYPE" fromTaz="taz92" toTaz="taz93" departLane="free" departSpeed="max"/>
  <trip id="17" depart="6.55" from="D2" to="D5" type="DEFAULT_VEHTYPE" fromTaz="taz91" toTaz="taz93" departLane="free" departSpeed="max"/>
  <trip id="1485" depart="6.81" from="D4" to="D7" type="DEFAULT_VEHTYPE" fromTaz="taz92" toTaz="taz94" departLane="free" departSpeed="max"/>
  <trip id="18" depart="6.92" from="D2" to="D5" type="DEFAULT_VEHTYPE" fromTaz="taz91" toTaz="taz93" departLane="free" departSpeed="max"/>
  <trip id="1486" depart="7.07" from="D4" to="D7" type="DEFAULT_VEHTYPE" fromTaz="taz92" toTaz="taz94" departLane="free" departSpeed="max"/>
  <trip id="809" depart="7.17" from="D2" to="D7" type="DEFAULT_VEHTYPE" fromTaz="taz91" toTaz="taz94" departLane="free" departSpeed="max"/>
  <trip id="19" depart="7.29" from="D2" to="D5" type="DEFAULT_VEHTYPE" fromTaz="taz91" toTaz="taz93" departLane="free" departSpeed="max"/>
  <trip id="1487" depart="7.34" from="D4" to="D7" type="DEFAULT_VEHTYPE" fromTaz="taz92" toTaz="taz94" departLane="free" departSpeed="max"/>
  <trip id="1124" depart="7.41" from="D4" to="D5" type="DEFAULT_VEHTYPE" fromTaz="taz92" toTaz="taz93" departLane="free" departSpeed="max"/>
  <trip id="1488" depart="7.61" from="D4" to="D7" type="DEFAULT_VEHTYPE" fromTaz="taz92" toTaz="taz94" departLane="free" departSpeed="max"/>
  <trip id="20" depart="7.67" from="D2" to="D5" type="DEFAULT_VEHTYPE" fromTaz="taz91" toTaz="taz93" departLane="free" departSpeed="max"/>
  <trip id="1489" depart="7.87" from="D4" to="D7" type="DEFAULT_VEHTYPE" fromTaz="taz92" toTaz="taz94" departLane="free" departSpeed="max"/>
  <trip id="21" depart="8.04" from="D2" to="D5" type="DEFAULT_VEHTYPE" fromTaz="taz91" toTaz="taz93" departLane="free" departSpeed="max"/>
  <trip id="810" depart="8.12" from="D2" to="D7" type="DEFAULT_VEHTYPE" fromTaz="taz91" toTaz="taz94" departLane="free" departSpeed="max"/>
  <trip id="1490" depart="8.14" from="D4" to="D7" type="DEFAULT_VEHTYPE" fromTaz="taz92" toTaz="taz94" departLane="free" departSpeed="max"/>
  <trip id="1125" depart="8.28" from="D4" to="D5" type="DEFAULT_VEHTYPE" fromTaz="taz92" toTaz="taz93" departLane="free" departSpeed="max"/>
  <trip id="1491" depart="8.41" from="D4" to="D7" type="DEFAULT_VEHTYPE" fromTaz="taz92" toTaz="taz94" departLane="free" departSpeed="max"/>
  <trip id="22" depart="8.42" from="D2" to="D5" type="DEFAULT_VEHTYPE" fromTaz="taz91" toTaz="taz93" departLane="free" departSpeed="max"/>
  <trip id="1492" depart="8.67" from="D4" to="D7" type="DEFAULT_VEHTYPE" fromTaz="taz92" toTaz="taz94" departLane="free" departSpeed="max"/>
  <trip id="23" depart="8.79" from="D2" to="D5" type="DEFAULT_VEHTYPE" fromTaz="taz91" toTaz="taz93" departLane="free" departSpeed="max"/>
  <trip id="1493" depart="8.94" from="D4" to="D7" type="DEFAULT_VEHTYPE" fromTaz="taz92" toTaz="taz94" departLane="free" departSpeed="max"/>
  <trip id="811" depart="9.08" from="D2" to="D7" type="DEFAULT_VEHTYPE" fromTaz="taz91" toTaz="taz94" departLane="free" departSpeed="max"/>
  <trip id="24" depart="9.16" from="D2" to="D5" type="DEFAULT_VEHTYPE" fromTaz="taz91" toTaz="taz93" departLane="free" departSpeed="max"/>
  <trip id="1126" depart="9.16" from="D4" to="D5" type="DEFAULT_VEHTYPE" fromTaz="taz92" toTaz="taz93" departLane="free" departSpeed="max"/>
  <trip id="1494" depart="9.21" from="D4" to="D7" type="DEFAULT_VEHTYPE" fromTaz="taz92" toTaz="taz94" departLane="free" departSpeed="max"/>
  <trip id="1495" depart="9.48" from="D4" to="D7" type="DEFAULT_VEHTYPE" fromTaz="taz92" toTaz="taz94" departLane="free" departSpeed="max"/>
  <trip id="25" depart="9.54" from="D2" to="D5" type="DEFAULT_VEHTYPE" fromTaz="taz91" toTaz="taz93" departLane="free" departSpeed="max"/>
  <trip id="1496" depart="9.74" from="D4" to="D7" type="DEFAULT_VEHTYPE" fromTaz="taz92" toTaz="taz94" departLane="free" departSpeed="max"/>
  <trip id="26" depart="9.91" from="D2" to="D5" type="DEFAULT_VEHTYPE" fromTaz="taz91" toTaz="taz93" departLane="free" departSpeed="max"/>
  <trip id="1497" depart="10.01" from="D4" to="D7" type="DEFAULT_VEHTYPE" fromTaz="taz92" toTaz="taz94" departLane="free" departSpeed="max"/>
  <trip id="1127" depart="10.03" from="D4" to="D5" type="DEFAULT_VEHTYPE" fromTaz="taz92" toTaz="taz93" departLane="free" departSpeed="max"/>
  <trip id="812" depart="10.03" from="D2" to="D7" type="DEFAULT_VEHTYPE" fromTaz="taz91" toTaz="taz94" departLane="free" departSpeed="max"/>
  <trip id="1498" depart="10.28" from="D4" to="D7" type="DEFAULT_VEHTYPE" fromTaz="taz92" toTaz="taz94" departLane="free" departSpeed="max"/>
  <trip id="27" depart="10.29" from="D2" to="D5" type="DEFAULT_VEHTYPE" fromTaz="taz91" toTaz="taz93" departLane="free" departSpeed="max"/>
  <trip id="1499" depart="10.54" from="D4" to="D7" type="DEFAULT_VEHTYPE" fromTaz="taz92" toTaz="taz94" departLane="free" departSpeed="max"/>
  <trip id="28" depart="10.66" from="D2" to="D5" type="DEFAULT_VEHTYPE" fromTaz="taz91" toTaz="taz93" departLane="free" departSpeed="max"/>
  <trip id="1500" depart="10.81" from="D4" to="D7" type="DEFAULT_VEHTYPE" fromTaz="taz92" toTaz="taz94" departLane="free" departSpeed="max"/>
  <trip id="1128" depart="10.90" from="D4" to="D5" type="DEFAULT_VEHTYPE" fromTaz="taz92" toTaz="taz93" departLane="free" departSpeed="max"/>
  <trip id="813" depart="10.99" from="D2" to="D7" type="DEFAULT_VEHTYPE" fromTaz="taz91" toTaz="taz94" departLane="free" departSpeed="max"/>
  <trip id="29" depart="11.03" from="D2" to="D5" type="DEFAULT_VEHTYPE" fromTaz="taz91" toTaz="taz93" departLane="free" departSpeed="max"/>
  <trip id="1501" depart="11.08" from="D4" to="D7" type="DEFAULT_VEHTYPE" fromTaz="taz92" toTaz="taz94" departLane="free" departSpeed="max"/>
  <trip id="1502" depart="11.34" from="D4" to="D7" type="DEFAULT_VEHTYPE" fromTaz="taz92" toTaz="taz94" departLane="free" departSpeed="max"/>
  <trip id="30" depart="11.41" from="D2" to="D5" type="DEFAULT_VEHTYPE" fromTaz="taz91" toTaz="taz93" departLane="free" departSpeed="max"/>
  <trip id="1503" depart="11.61" from="D4" to="D7" type="DEFAULT_VEHTYPE" fromTaz="taz92" toTaz="taz94" departLane="free" departSpeed="max"/>
  <trip id="1129" depart="11.77" from="D4" to="D5" type="DEFAULT_VEHTYPE" fromTaz="taz92" toTaz="taz93" departLane="free" departSpeed="max"/>
  <trip id="31" depart="11.78" from="D2" to="D5" type="DEFAULT_VEHTYPE" fromTaz="taz91" toTaz="taz93" departLane="free" departSpeed="max"/>
  <trip id="1504" depart="11.88" from="D4" to="D7" type="DEFAULT_VEHTYPE" fromTaz="taz92" toTaz="taz94" departLane="free" departSpeed="max"/>
  <trip id="814" depart="11.94" from="D2" to="D7" type="DEFAULT_VEHTYPE" fromTaz="taz91" toTaz="taz94" departLane="free" departSpeed="max"/>
  <trip id="1505" depart="12.14" from="D4" to="D7" type="DEFAULT_VEHTYPE" fromTaz="taz92" toTaz="taz94" departLane="free" departSpeed="max"/>
  <trip id="32" depart="12.16" from="D2" to="D5" type="DEFAULT_VEHTYPE" fromTaz="taz91" toTaz="taz93" departLane="free" departSpeed="max"/>
  <trip id="1506" depart="12.41" from="D4" to="D7" type="DEFAULT_VEHTYPE" fromTaz="taz92" toTaz="taz94" departLane="free" departSpeed="max"/>
  <trip id="33" depart="12.53" from="D2" to="D5" type="DEFAULT_VEHTYPE" fromTaz="taz91" toTaz="taz93" departLane="free" departSpeed="max"/>
  <trip id="1130" depart="12.65" from="D4" to="D5" type="DEFAULT_VEHTYPE" fromTaz="taz92" toTaz="taz93" departLane="free" departSpeed="max"/>
  <trip id="1507" depart="12.68" from="D4" to="D7" type="DEFAULT_VEHTYPE" fromTaz="taz92" toTaz="taz94" departLane="free" departSpeed="max"/>
  <trip id="815" depart="12.90" from="D2" to="D7" type="DEFAULT_VEHTYPE" fromTaz="taz91" toTaz="taz94" departLane="free" departSpeed="max"/>
  <trip id="34" depart="12.91" from="D2" to="D5" type="DEFAULT_VEHTYPE" fromTaz="taz91" toTaz="taz93" departLane="free" departSpeed="max"/>
  <trip id="1508" depart="12.94" from="D4" to="D7" type="DEFAULT_VEHTYPE" fromTaz="taz92" toTaz="taz94" departLane="free" departSpeed="max"/>
  <trip id="1509" depart="13.21" from="D4" to="D7" type="DEFAULT_VEHTYPE" fromTaz="taz92" toTaz="taz94" departLane="free" departSpeed="max"/>
  <trip id="35" depart="13.28" from="D2" to="D5" type="DEFAULT_VEHTYPE" fromTaz="taz91" toTaz="taz93" departLane="free" departSpeed="max"/>
  <trip id="1510" depart="13.48" from="D4" to="D7" type="DEFAULT_VEHTYPE" fromTaz="taz92" toTaz="taz94" departLane="free" departSpeed="max"/>
  <trip id="1131" depart="13.52" from="D4" to="D5" type="DEFAULT_VEHTYPE" fromTaz="taz92" toTaz="taz93" departLane="free" departSpeed="max"/>
  <trip id="36" depart="13.65" from="D2" to="D5" type="DEFAULT_VEHTYPE" fromTaz="taz91" toTaz="taz93" departLane="free" departSpeed="max"/>
  <trip id="1511" depart="13.75" from="D4" to="D7" type="DEFAULT_VEHTYPE" fromTaz="taz92" toTaz="taz94" departLane="free" departSpeed="max"/>
  <trip id="816" depart="13.85" from="D2" to="D7" type="DEFAULT_VEHTYPE" fromTaz="taz91" toTaz="taz94" departLane="free" departSpeed="max"/>
  <trip id="1512" depart="14.01" from="D4" to="D7" type="DEFAULT_VEHTYPE" fromTaz="taz92" toTaz="taz94" departLane="free" departSpeed="max"/>
  <trip id="37" depart="14.03" from="D2" to="D5" type="DEFAULT_VEHTYPE" fromTaz="taz91" toTaz="taz93" departLane="free" departSpeed="max"/>
  <trip id="1513" depart="14.28" from="D4" to="D7" type="DEFAULT_VEHTYPE" fromTaz="taz92" toTaz="taz94" departLane="free" departSpeed="max"/>
  <trip id="1132" depart="14.39" from="D4" to="D5" type="DEFAULT_VEHTYPE" fromTaz="taz92" toTaz="taz93" departLane="free" departSpeed="max"/>
  <trip id="38" depart="14.40" from="D2" to="D5" type="DEFAULT_VEHTYPE" fromTaz="taz91" toTaz="taz93" departLane="free" departSpeed="max"/>
  <trip id="1514" depart="14.55" from="D4" to="D7" type="DEFAULT_VEHTYPE" fromTaz="taz92" toTaz="taz94" departLane="free" departSpeed="max"/>
  <trip id="39" depart="14.78" from="D2" to="D5" type="DEFAULT_VEHTYPE" fromTaz="taz91" toTaz="taz93" departLane="free" departSpeed="max"/>
  <trip id="817" depart="14.81" from="D2" to="D7" type="DEFAULT_VEHTYPE" fromTaz="taz91" toTaz="taz94" departLane="free" departSpeed="max"/>
  <trip id="1515" depart="14.81" from="D4" to="D7" type="DEFAULT_VEHTYPE" fromTaz="taz92" toTaz="taz94" departLane="free" departSpeed="max"/>
  <trip id="1516" depart="15.08" from="D4" to="D7" type="DEFAULT_VEHTYPE" fromTaz="taz92" toTaz="taz94" departLane="free" departSpeed="max"/>
  <trip id="40" depart="15.15" from="D2" to="D5" type="DEFAULT_VEHTYPE" fromTaz="taz91" toTaz="taz93" departLane="free" departSpeed="max"/>
  <trip id="1133" depart="15.26" from="D4" to="D5" type="DEFAULT_VEHTYPE" fromTaz="taz92" toTaz="taz93" departLane="free" departSpeed="max"/>
  <trip id="1517" depart="15.35" from="D4" to="D7" type="DEFAULT_VEHTYPE" fromTaz="taz92" toTaz="taz94" departLane="free" departSpeed="max"/>
  <trip id="41" depart="15.52" from="D2" to="D5" type="DEFAULT_VEHTYPE" fromTaz="taz91" toTaz="taz93" departLane="free" departSpeed="max"/>
  <trip id="1518" depart="15.61" from="D4" to="D7" type="DEFAULT_VEHTYPE" fromTaz="taz92" toTaz="taz94" departLane="free" departSpeed="max"/>
  <trip id="818" depart="15.76" from="D2" to="D7" type="DEFAULT_VEHTYPE" fromTaz="taz91" toTaz="taz94" departLane="free" departSpeed="max"/>
  <trip id="1519" depart="15.88" from="D4" to="D7" type="DEFAULT_VEHTYPE" fromTaz="taz92" toTaz="taz94" departLane="free" departSpeed="max"/>
  <trip id="42" depart="15.90" from="D2" to="D5" type="DEFAULT_VEHTYPE" fromTaz="taz91" toTaz="taz93" departLane="free" departSpeed="max"/>
  <trip id="1134" depart="16.13" from="D4" to="D5" type="DEFAULT_VEHTYPE" fromTaz="taz92" toTaz="taz93" departLane="free" departSpeed="max"/>
  <trip id="1520" depart="16.15" from="D4" to="D7" type="DEFAULT_VEHTYPE" fromTaz="taz92" toTaz="taz94" departLane="free" departSpeed="max"/>
  <trip id="43" depart="16.27" from="D2" to="D5" type="DEFAULT_VEHTYPE" fromTaz="taz91" toTaz="taz93" departLane="free" departSpeed="max"/>
  <trip id="1521" depart="16.41" from="D4" to="D7" type="DEFAULT_VEHTYPE" fromTaz="taz92" toTaz="taz94" departLane="free" departSpeed="max"/>
  <trip id="44" depart="16.65" from="D2" to="D5" type="DEFAULT_VEHTYPE" fromTaz="taz91" toTaz="taz93" departLane="free" departSpeed="max"/>
  <trip id="1522" depart="16.68" from="D4" to="D7" type="DEFAULT_VEHTYPE" fromTaz="taz92" toTaz="taz94" departLane="free" departSpeed="max"/>
  <trip id="819" depart="16.72" from="D2" to="D7" type="DEFAULT_VEHTYPE" fromTaz="taz91" toTaz="taz94" departLane="free" departSpeed="max"/>
  <trip id="1523" depart="16.95" from="D4" to="D7" type="DEFAULT_VEHTYPE" fromTaz="taz92" toTaz="taz94" departLane="free" departSpeed="max"/>
  <trip id="1135" depart="17.01" from="D4" to="D5" type="DEFAULT_VEHTYPE" fromTaz="taz92" toTaz="taz93" departLane="free" departSpeed="max"/>
  <trip id="45" depart="17.02" from="D2" to="D5" type="DEFAULT_VEHTYPE" fromTaz="taz91" toTaz="taz93" departLane="free" departSpeed="max"/>
  <trip id="1524" depart="17.22" from="D4" to="D7" type="DEFAULT_VEHTYPE" fromTaz="taz92" toTaz="taz94" departLane="free" departSpeed="max"/>
  <trip id="46" depart="17.39" from="D2" to="D5" type="DEFAULT_VEHTYPE" fromTaz="taz91" toTaz="taz93" departLane="free" departSpeed="max"/>
  <trip id="1525" depart="17.48" from="D4" to="D7" type="DEFAULT_VEHTYPE" fromTaz="taz92" toTaz="taz94" departLane="free" departSpeed="max"/>
  <trip id="820" depart="17.68" from="D2" to="D7" type="DEFAULT_VEHTYPE" fromTaz="taz91" toTaz="taz94" departLane="free" departSpeed="max"/>
  <trip id="1526" depart="17.75" from="D4" to="D7" type="DEFAULT_VEHTYPE" fromTaz="taz92" toTaz="taz94" departLane="free" departSpeed="max"/>
  <trip id="47" depart="17.77" from="D2" to="D5" type="DEFAULT_VEHTYPE" fromTaz="taz91" toTaz="taz93" departLane="free" departSpeed="max"/>
  <trip id="1136" depart="17.88" from="D4" to="D5" type="DEFAULT_VEHTYPE" fromTaz="taz92" toTaz="taz93" departLane="free" departSpeed="max"/>
  <trip id="1527" depart="18.02" from="D4" to="D7" type="DEFAULT_VEHTYPE" fromTaz="taz92" toTaz="taz94" departLane="free" departSpeed="max"/>
  <trip id="48" depart="18.14" from="D2" to="D5" type="DEFAULT_VEHTYPE" fromTaz="taz91" toTaz="taz93" departLane="free" departSpeed="max"/>
  <trip id="1528" depart="18.28" from="D4" to="D7" type="DEFAULT_VEHTYPE" fromTaz="taz92" toTaz="taz94" departLane="free" departSpeed="max"/>
  <trip id="49" depart="18.52" from="D2" to="D5" type="DEFAULT_VEHTYPE" fromTaz="taz91" toTaz="taz93" departLane="free" departSpeed="max"/>
  <trip id="1529" depart="18.55" from="D4" to="D7" type="DEFAULT_VEHTYPE" fromTaz="taz92" toTaz="taz94" departLane="free" departSpeed="max"/>
  <trip id="821" depart="18.63" from="D2" to="D7" type="DEFAULT_VEHTYPE" fromTaz="taz91" toTaz="taz94" departLane="free" departSpeed="max"/>
  <trip id="1137" depart="18.75" from="D4" to="D5" type="DEFAULT_VEHTYPE" fromTaz="taz92" toTaz="taz93" departLane="free" departSpeed="max"/>
  <trip id="1530" depart="18.82" from="D4" to="D7" type="DEFAULT_VEHTYPE" fromTaz="taz92" toTaz="taz94" departLane="free" departSpeed="max"/>
  <trip id="50" depart="18.89" from="D2" to="D5" type="DEFAULT_VEHTYPE" fromTaz="taz91" toTaz="taz93" departLane="free" departSpeed="max"/>
  <trip id="1531" depart="19.08" from="D4" to="D7" type="DEFAULT_VEHTYPE" fromTaz="taz92" toTaz="taz94" departLane="free" departSpeed="max"/>
  <trip id="51" depart="19.26" from="D2" to="D5" type="DEFAULT_VEHTYPE" fromTaz="taz91" toTaz="taz93" departLane="free" departSpeed="max"/>
  <trip id="1532" depart="19.35" from="D4" to="D7" type="DEFAULT_VEHTYPE" fromTaz="taz92" toTaz="taz94" departLane="free" departSpeed="max"/>
  <trip id="822" depart="19.59" from="D2" to="D7" type="DEFAULT_VEHTYPE" fromTaz="taz91" toTaz="taz94" departLane="free" departSpeed="max"/>
  <trip id="1138" depart="19.62" from="D4" to="D5" type="DEFAULT_VEHTYPE" fromTaz="taz92" toTaz="taz93" departLane="free" departSpeed="max"/>
  <trip id="1533" depart="19.62" from="D4" to="D7" type="DEFAULT_VEHTYPE" fromTaz="taz92" toTaz="taz94" departLane="free" departSpeed="max"/>
  <trip id="52" depart="19.64" from="D2" to="D5" type="DEFAULT_VEHTYPE" fromTaz="taz91" toTaz="taz93" departLane="free" departSpeed="max"/>
  <trip id="1534" depart="19.88" from="D4" to="D7" type="DEFAULT_VEHTYPE" fromTaz="taz92" toTaz="taz94" departLane="free" departSpeed="max"/>
  <trip id="53" depart="20.01" from="D2" to="D5" type="DEFAULT_VEHTYPE" fromTaz="taz91" toTaz="taz93" departLane="free" departSpeed="max"/>
  <trip id="1535" depart="20.15" from="D4" to="D7" type="DEFAULT_VEHTYPE" fromTaz="taz92" toTaz="taz94" departLane="free" departSpeed="max"/>
  <trip id="54" depart="20.39" from="D2" to="D5" type="DEFAULT_VEHTYPE" fromTaz="taz91" toTaz="taz93" departLane="free" departSpeed="max"/>
  <trip id="1536" depart="20.42" from="D4" to="D7" type="DEFAULT_VEHTYPE" fromTaz="taz92" toTaz="taz94" departLane="free" departSpeed="max"/>
  <trip id="1139" depart="20.49" from="D4" to="D5" type="DEFAULT_VEHTYPE" fromTaz="taz92" toTaz="taz93" departLane="free" departSpeed="max"/>
  <trip id="823" depart="20.54" from="D2" to="D7" type="DEFAULT_VEHTYPE" fromTaz="taz91" toTaz="taz94" departLane="free" departSpeed="max"/>
  <trip id="1537" depart="20.69" from="D4" to="D7" type="DEFAULT_VEHTYPE" fromTaz="taz92" toTaz="taz94" departLane="free" departSpeed="max"/>
  <trip id="55" depart="20.76" from="D2" to="D5" type="DEFAULT_VEHTYPE" fromTaz="taz91" toTaz="taz93" departLane="free" departSpeed="max"/>
  <trip id="1538" depart="20.95" from="D4" to="D7" type="DEFAULT_VEHTYPE" fromTaz="taz92" toTaz="taz94" departLane="free" departSpeed="max"/>
  <trip id="56" depart="21.13" from="D2" to="D5" type="DEFAULT_VEHTYPE" fromTaz="taz91" toTaz="taz93" departLane="free" departSpeed="max"/>
  <trip id="1539" depart="21.22" from="D4" to="D7" type="DEFAULT_VEHTYPE" fromTaz="taz92" toTaz="taz94" departLane="free" departSpeed="max"/>
  <trip id="1140" depart="21.37" from="D4" to="D5" type="DEFAULT_VEHTYPE" fromTaz="taz92" toTaz="taz93" departLane="free" departSpeed="max"/>
  <trip id="1540" depart="21.49" from="D4" to="D7" type="DEFAULT_VEHTYPE" fromTaz="taz92" toTaz="taz94" departLane="free" departSpeed="max"/>
  <trip id="824" depart="21.50" from="D2" to="D7" type="DEFAULT_VEHTYPE" fromTaz="taz91" toTaz="taz94" departLane="free" departSpeed="max"/>
  <trip id="57" depart="21.51" from="D2" to="D5" type="DEFAULT_VEHTYPE" fromTaz="taz91" toTaz="taz93" departLane="free" departSpeed="max"/>
  <trip id="1541" depart="21.75" from="D4" to="D7" type="DEFAULT_VEHTYPE" fromTaz="taz92" toTaz="taz94" departLane="free" departSpeed="max"/>
  <trip id="58" depart="21.88" from="D2" to="D5" type="DEFAULT_VEHTYPE" fromTaz="taz91" toTaz="taz93" departLane="free" departSpeed="max"/>
  <trip id="1542" depart="22.02" from="D4" to="D7" type="DEFAULT_VEHTYPE" fromTaz="taz92" toTaz="taz94" departLane="free" departSpeed="max"/>
  <trip id="1141" depart="22.24" from="D4" to="D5" type="DEFAULT_VEHTYPE" fromTaz="taz92" toTaz="taz93" departLane="free" departSpeed="max"/>
  <trip id="59" depart="22.26" from="D2" to="D5" type="DEFAULT_VEHTYPE" fromTaz="taz91" toTaz="taz93" departLane="free" departSpeed="max"/>
  <trip id="1543" depart="22.29" from="D4" to="D7" type="DEFAULT_VEHTYPE" fromTaz="taz92" toTaz="taz94" departLane="free" departSpeed="max"/>
  <trip id="825" depart="22.45" from="D2" to="D7" type="DEFAULT_VEHTYPE" fromTaz="taz91" toTaz="taz94" departLane="free" departSpeed="max"/>
  <trip id="1544" depart="22.55" from="D4" to="D7" type="DEFAULT_VEHTYPE" fromTaz="taz92" toTaz="taz94" departLane="free" departSpeed="max"/>
  <trip id="60" depart="22.63" from="D2" to="D5" type="DEFAULT_VEHTYPE" fromTaz="taz91" toTaz="taz93" departLane="free" departSpeed="max"/>
  <trip id="1545" depart="22.82" from="D4" to="D7" type="DEFAULT_VEHTYPE" fromTaz="taz92" toTaz="taz94" departLane="free" departSpeed="max"/>
  <trip id="61" depart="23.00" from="D2" to="D5" type="DEFAULT_VEHTYPE" fromTaz="taz91" toTaz="taz93" departLane="free" departSpeed="max"/>
  <trip id="1546" depart="23.09" from="D4" to="D7" type="DEFAULT_VEHTYPE" fromTaz="taz92" toTaz="taz94" departLane="free" departSpeed="max"/>
  <trip id="1142" depart="23.11" from="D4" to="D5" type="DEFAULT_VEHTYPE" fromTaz="taz92" toTaz="taz93" departLane="free" departSpeed="max"/>
  <trip id="1547" depart="23.35" from="D4" to="D7" type="DEFAULT_VEHTYPE" fromTaz="taz92" toTaz="taz94" departLane="free" departSpeed="max"/>
  <trip id="62" depart="23.38" from="D2" to="D5" type="DEFAULT_VEHTYPE" fromTaz="taz91" toTaz="taz93" departLane="free" departSpeed="max"/>
  <trip id="826" depart="23.41" from="D2" to="D7" type="DEFAULT_VEHTYPE" fromTaz="taz91" toTaz="taz94" departLane="free" departSpeed="max"/>
  <trip id="1548" depart="23.62" from="D4" to="D7" type="DEFAULT_VEHTYPE" fromTaz="taz92" toTaz="taz94" departLane="free" departSpeed="max"/>
  <trip id="63" depart="23.75" from="D2" to="D5" type="DEFAULT_VEHTYPE" fromTaz="taz91" toTaz="taz93" departLane="free" departSpeed="max"/>
  <trip id="1549" depart="23.89" from="D4" to="D7" type="DEFAULT_VEHTYPE" fromTaz="taz92" toTaz="taz94" departLane="free" departSpeed="max"/>
  <trip id="1143" depart="23.98" from="D4" to="D5" type="DEFAULT_VEHTYPE" fromTaz="taz92" toTaz="taz93" departLane="free" departSpeed="max"/>
  <trip id="64" depart="24.13" from="D2" to="D5" type="DEFAULT_VEHTYPE" fromTaz="taz91" toTaz="taz93" departLane="free" departSpeed="max"/>
  <trip id="1550" depart="24.15" from="D4" to="D7" type="DEFAULT_VEHTYPE" fromTaz="taz92" toTaz="taz94" departLane="free" departSpeed="max"/>
  <trip id="827" depart="24.36" from="D2" to="D7" type="DEFAULT_VEHTYPE" fromTaz="taz91" toTaz="taz94" departLane="free" departSpeed="max"/>
  <trip id="1551" depart="24.42" from="D4" to="D7" type="DEFAULT_VEHTYPE" fromTaz="taz92" toTaz="taz94" departLane="free" departSpeed="max"/>
  <trip id="65" depart="24.50" from="D2" to="D5" type="DEFAULT_VEHTYPE" fromTaz="taz91" toTaz="taz93" departLane="free" departSpeed="max"/>