<?xml version='1.0' encoding='utf-8'?>
<routes>
  <trip id="4302" depart="0.08" from="8926666" to="992584129" type="DEFAULT_VEHTYPE" fromTaz="T1_680_1" toTaz="T1_880_1" departLane="free" departSpeed="max"/>
  <trip id="1479" depart="0.11" from="957460911" to="966059358" type="DEFAULT_VEHTYPE" fromTaz="T1_680_1" toTaz="T1_17_1" departLane="free" departSpeed="max"/>
  <trip id="2900" depart="0.11" from="93631240" to="4786685" type="DEFAULT_VEHTYPE" fromTaz="T1_680_1" toTaz="T1_280_1" departLane="free" departSpeed="max"/>
  <trip id="0" depart="0.14" from="8927038#1" to="394385111" type="DEFAULT_VEHTYPE" fromTaz="T1_680_1" toTaz="T1_101_1" departLane="free" departSpeed="max"/>
  <trip id="4303" depart="0.23" from="8926666" to="992584129" type="DEFAULT_VEHTYPE" fromTaz="T1_680_1" toTaz="T1_880_1" departLane="free" departSpeed="max"/>
  <trip id="1480" depart="0.32" from="957460911" to="966059358" type="DEFAULT_VEHTYPE" fromTaz="T1_680_1" toTaz="T1_17_1" departLane="free" departSpeed="max"/>
  <trip id="2901" depart="0.32" from="93631240" to="4786685" type="DEFAULT_VEHTYPE" fromTaz="T1_680_1" toTaz="T1_280_1" departLane="free" departSpeed="max"/>
  <trip id="1062" depart="0.36" from="93631240" to="515733343" type="DEFAULT_VEHTYPE" fromTaz="T1_680_1" toTaz="T1_101_2" departLane="free" departSpeed="max"/>
  <trip id="4304" depart="0.38" from="8926666" to="992584129" type="DEFAULT_VEHTYPE" fromTaz="T1_680_1" toTaz="T1_880_1" departLane="free" departSpeed="max"/>
  <trip id="1" depart="0.42" from="8927038#1" to="394385111" type="DEFAULT_VEHTYPE" fromTaz="T1_680_1" toTaz="T1_101_1" departLane="free" departSpeed="max"/>
  <trip id="2902" depart="0.53" from="93631240" to="4786685" type="DEFAULT_VEHTYPE" fromTaz="T1_680_1" toTaz="T1_280_1" departLane="free" departSpeed="max"/>
  <trip id="1481" depart="0.53" from="957460911" to="966059358" type="DEFAULT_VEHTYPE" fromTaz="T1_680_1" toTaz="T1_17_1" departLane="free" departSpeed="max"/>
  <trip id="4305" depart="0.54" from="8926666" to="992584129" type="DEFAULT_VEHTYPE" fromTaz="T1_680_1" toTaz="T1_880_1" departLane="free" departSpeed="max"/>
  <trip id="4306" depart="0.69" from="8926666" to="992584129" type="DEFAULT_VEHTYPE" fromTaz="T1_680_1" toTaz="T1_880_1" departLane="free" departSpeed="max"/>
  <trip id="2" depart="0.71" from="8927038#1" to="394385111" type="DEFAULT_VEHTYPE" fromTaz="T1_680_1" toTaz="T1_101_1" departLane="free" departSpeed="max"/>
  <trip id="1482" depart="0.74" from="957460911" to="966059358" type="DEFAULT_VEHTYPE" fromTaz="T1_680_1" toTaz="T1_17_1" departLane="free" departSpeed="max"/>
  <trip id="2903" depart="0.75" from="93631240" to="4786685" type="DEFAULT_VEHTYPE" fromTaz="T1_680_1" toTaz="T1_280_1" departLane="free" departSpeed="max"/>
  <trip id="4307" depart="0.85" from="8926666" to="992584129" type="DEFAULT_VEHTYPE" fromTaz="T1_680_1" toTaz="T1_880_1" departLane="free" departSpeed="max"/>
  <trip id="1483" depart="0.95" from="957460911" to="966059358" type="DEFAULT_VEHTYPE" fromTaz="T1_680_1" toTaz="T1_17_1" departLane="free" departSpeed="max"/>
  <trip id="2904" depart="0.96" from="93631240" to="4786685" type="DEFAULT_VEHTYPE" fromTaz="T1_680_1" toTaz="T1_280_1" departLane="free" departSpeed="max"/>
  <trip id="3" depart="0.99" from="8927038#1" to="394385111" type="DEFAULT_VEHTYPE" fromTaz="T1_680_1" toTaz="T1_101_1" departLane="free" departSpeed="max"/>
  <trip id="4308" depart="1.00" from="8926666" to="992584129" type="DEFAULT_VEHTYPE" fromTaz="T1_680_1" toTaz="T1_880_1" departLane="free" departSpeed="max"/>
  <trip id="1063" depart="1.08" from="93631240" to="515733343" type="DEFAULT_VEHTYPE" fromTaz="T1_680_1" toTaz="T1_101_2" departLane="free" departSpeed="max"/>
  <trip id="4309" depart="1.15" from="8926666" to="992584129" type="DEFAULT_VEHTYPE" fromTaz="T1_680_1" toTaz="T1_880_1" departLane="free" departSpeed="max"/>
  <trip id="1484" depart="1.16" from="957460911" to="966059358" type="DEFAULT_VEHTYPE" fromTaz="T1_680_1" toTaz="T1_17_1" departLane="free" departSpeed="max"/>
  <trip id="2905" depart="1.18" from="93631240" to="4786685" type="DEFAULT_VEHTYPE" fromTaz="T1_680_1" toTaz="T1_280_1" departLane="free" departSpeed="max"/>
  <trip id="4" depart="1.27" from="8927038#1" to="394385111" type="DEFAULT_VEHTYPE" fromTaz="T1_680_1" toTaz="T1_101_1" departLane="free" departSpeed="max"/>
  <trip id="4310" depart="1.31" from="8926666" to="992584129" type="DEFAULT_VEHTYPE" fromTaz="T1_680_1" toTaz="T1_880_1" departLane="free" departSpeed="max"/>
  <trip id="1485" depart="1.37" from="957460911" to="966059358" type="DEFAULT_VEHTYPE" fromTaz="T1_680_1" toTaz="T1_17_1" departLane="free" departSpeed="max"/>
  <trip id="2906" depart="1.39" from="93631240" to="4786685" type="DEFAULT_VEHTYPE" fromTaz="T1_680_1" toTaz="T1_280_1" departLane="free" departSpeed="max"/>
  <trip id="4311" depart="1.46" from="8926666" to="992584129" type="DEFAULT_VEHTYPE" fromTaz="T1_680_1" toTaz="T1_880_1" departLane="free" departSpeed="max"/>
  <trip id="5" depart="1.55" from="8927038#1" to="394385111" type="DEFAULT_VEHTYPE" fromTaz="T1_680_1" toTaz="T1_101_1" departLane="free" departSpeed="max"/>
  <trip id="1486" depart="1.58" from="957460911" to="966059358" type="DEFAULT_VEHTYPE" fromTaz="T1_680_1" toTaz="T1_17_1" departLane="free" departSpeed="max"/>
  <trip id="2907" depart="1.60" from="93631240" to="4786685" type="DEFAULT_VEHTYPE" fromTaz="T1_680_1" toTaz="T1_280_1" departLane="free" departSpeed="max"/>
  <trip id="4312" depart="1.61" from="8926666" to="992584129" type="DEFAULT_VEHTYPE" fromTaz="T1_680_1" toTaz="T1_880_1" departLane="free" departSpeed="max"/>
  <trip id="4313" depart="1.77" from="8926666" to="992584129" type="DEFAULT_VEHTYPE" fromTaz="T1_680_1" toTaz="T1_880_1" departLane="free" departSpeed="max"/>
  <trip id="1487" depart="1.79" from="957460911" to="966059358" type="DEFAULT_VEHTYPE" fromTaz="T1_680_1" toTaz="T1_17_1" departLane="free" departSpeed="max"/>
  <trip id="1064" depart="1.80" from="93631240" to="515733343" type="DEFAULT_VEHTYPE" fromTaz="T1_680_1" toTaz="T1_101_2" departLane="free" departSpeed="max"/>
  <trip id="2908" depart="1.82" from="93631240" to="4786685" type="DEFAULT_VEHTYPE" fromTaz="T1_680_1" toTaz="T1_280_1" departLane="free" departSpeed="max"/>
  <trip id="6" depart="1.84" from="8927038#1" to="394385111" type="DEFAULT_VEHTYPE" fromTaz="T1_680_1" toTaz="T1_101_1" departLane="free" departSpeed="max"/>
  <trip id="4314" depart="1.92" from="8926666" to="992584129" type="DEFAULT_VEHTYPE" fromTaz="T1_680_1" toTaz="T1_880_1" departLane="free" departSpeed="max"/>
  <trip id="1488" depart="2.01" from="957460911" to="966059358" type="DEFAULT_VEHTYPE" fromTaz="T1_680_1" toTaz="T1_17_1" departLane="free" departSpeed="max"/>
  <trip id="2909" depart="2.03" from="93631240" to="4786685" type="DEFAULT_VEHTYPE" fromTaz="T1_680_1" toTaz="T1_280_1" departLane="free" departSpeed="max"/>
  <trip id="4315" depart="2.07" from="8926666" to="992584129" type="DEFAULT_VEHTYPE" fromTaz="T1_680_1" toTaz="T1_880_1" departLane="free" departSpeed="max"/>
  <trip id="7" depart="2.12" from="8927038#1" to="394385111" type="DEFAULT_VEHTYPE" fromTaz="T1_680_1" toTaz="T1_101_1" departLane="free" departSpeed="max"/>
  <trip id="1489" depart="2.22" from="957460911" to="966059358" type="DEFAULT_VEHTYPE" fromTaz="T1_680_1" toTaz="T1_17_1" departLane="free" departSpeed="max"/>
  <trip id="4316" depart="2.23" from="8926666" to="992584129" type="DEFAULT_VEHTYPE" fromTaz="T1_680_1" toTaz="T1_880_1" departLane="free" departSpeed="max"/>
  <trip id="2910" depart="2.25" from="93631240" to="4786685" type="DEFAULT_VEHTYPE" fromTaz="T1_680_1" toTaz="T1_280_1" departLane="free" departSpeed="max"/>
  <trip id="4317" depart="2.38" from="8926666" to="992584129" type="DEFAULT_VEHTYPE" fromTaz="T1_680_1" toTaz="T1_880_1" departLane="free" departSpeed="max"/>
  <trip id="8" depart="2.40" from="8927038#1" to="394385111" type="DEFAULT_VEHTYPE" fromTaz="T1_680_1" toTaz="T1_101_1" departLane="free" departSpeed="max"/>
  <trip id="1490" depart="2.43" from="957460911" to="966059358" type="DEFAULT_VEHTYPE" fromTaz="T1_680_1" toTaz="T1_17_1" departLane="free" departSpeed="max"/>
  <trip id="2911" depart="2.46" from="93631240" to="4786685" type="DEFAULT_VEHTYPE" fromTaz="T1_680_1" toTaz="T1_280_1" departLane="free" departSpeed="max"/>
  <trip id="1065" depart="2.52" from="93631240" to="515733343" type="DEFAULT_VEHTYPE" fromTaz="T1_680_1" toTaz="T1_101_2" departLane="free" departSpeed="max"/>
  <trip id="4318" depart="2.54" from="8926666" to="992584129" type="DEFAULT_VEHTYPE" fromTaz="T1_680_1" toTaz="T1_880_1" departLane="free" departSpeed="max"/>
  <trip id="1491" depart="2.64" from="957460911" to="966059358" type="DEFAULT_VEHTYPE" fromTaz="T1_680_1" toTaz="T1_17_1" departLane="free" departSpeed="max"/>
  <trip id="2912" depart="2.67" from="93631240" to="4786685" type="DEFAULT_VEHTYPE" fromTaz="T1_680_1" toTaz="T1_280_1" departLane="free" departSpeed="max"/>
  <trip id="9" depart="2.68" from="8927038#1" to="394385111" type="DEFAULT_VEHTYPE" fromTaz="T1_680_1" toTaz="T1_101_1" departLane="free" departSpeed="max"/>
  <trip id="4319" depart="2.69" from="8926666" to="992584129" type="DEFAULT_VEHTYPE" fromTaz="T1_680_1" toTaz="T1_880_1" departLane="free" departSpeed="max"/>
  <trip id="4320" depart="2.84" from="8926666" to="992584129" type="DEFAULT_VEHTYPE" fromTaz="T1_680_1" toTaz="T1_880_1" departLane="free" departSpeed="max"/>
  <trip id="1492" depart="2.85" from="957460911" to="966059358" type="DEFAULT_VEHTYPE" fromTaz="T1_680_1" toTaz="T1_17_1" departLane="free" departSpeed="max"/>
  <trip id="2913" depart="2.89" from="93631240" to="4786685" type="DEFAULT_VEHTYPE" fromTaz="T1_680_1" toTaz="T1_280_1" departLane="free" departSpeed="max"/>
  <trip id="10" depart="2.97" from="8927038#1" to="394385111" type="DEFAULT_VEHTYPE" fromTaz="T1_680_1" toTaz="T1_101_1" departLane="free" departSpeed="max"/>
  <trip id="4321" depart="3.00" from="8926666" to="992584129" type="DEFAULT_VEHTYPE" fromTaz="T1_680_1" toTaz="T1_880_1" departLane="free" departSpeed="max"/>
  <trip id="1493" depart="3.06" from="957460911" to="966059358" type="DEFAULT_VEHTYPE" fromTaz="T1_680_1" toTaz="T1_17_1" departLane="free" departSpeed="max"/>
  <trip id="2914" depart="3.10" from="93631240" to="4786685" type="DEFAULT_VEHTYPE" fromTaz="T1_680_1" toTaz="T1_280_1" departLane="free" departSpeed="max"/>
  <trip id="4322" depart="3.15" from="8926666" to="992584129" type="DEFAULT_VEHTYPE" fromTaz="T1_680_1" toTaz="T1_880_1" departLane="free" departSpeed="max"/>
  <trip id="1066" depart="3.24" from="93631240" to="515733343" type="DEFAULT_VEHTYPE" fromTaz="T1_680_1" toTaz="T1_101_2" departLane="free" departSpeed="max"/>
  <trip id="11" depart="3.25" from="8927038#1" to="394385111" type="DEFAULT_VEHTYPE" fromTaz="T1_680_1" toTaz="T1_101_1" departLane="free" departSpeed="max"/>
  <trip id="1494" depart="3.27" from="957460911" to="966059358" type="DEFAULT_VEHTYPE" fromTaz="T1_680_1" toTaz="T1_17_1" departLane="free" departSpeed="max"/>
  <trip id="4323" depart="3.30" from="8926666" to="992584129" type="DEFAULT_VEHTYPE" fromTaz="T1_680_1" toTaz="T1_880_1" departLane="free" departSpeed="max"/>
  <trip id="2915" depart="3.32" from="93631240" to="4786685" type="DEFAULT_VEHTYPE" fromTaz="T1_680_1" toTaz="T1_280_1" departLane="free" departSpeed="max"/>
  <trip id="4324" depart="3.46" from="8926666" to="992584129" type="DEFAULT_VEHTYPE" fromTaz="T1_680_1" toTaz="T1_880_1" departLane="free" departSpeed="max"/>
  <trip id="1495" depart="3.48" from="957460911" to="966059358" type="DEFAULT_VEHTYPE" fromTaz="T1_680_1" toTaz="T1_17_1" departLane="free" departSpeed="max"/>
  <trip id="2916" depart="3.53" from="93631240" to="4786685" type="DEFAULT_VEHTYPE" fromTaz="T1_680_1" toTaz="T1_280_1" departLane="free" departSpeed="max"/>
  <trip id="12" depart="3.53" from="8927038#1" to="394385111" type="DEFAULT_VEHTYPE" fromTaz="T1_680_1" toTaz="T1_101_1" departLane="free" departSpeed="max"/>
  <trip id="4325" depart="3.61" from="8926666" to="992584129" type="DEFAULT_VEHTYPE" fromTaz="T1_680_1" toTaz="T1_880_1" departLane="free" departSpeed="max"/>
  <trip id="1496" depart="3.69" from="957460911" to="966059358" type="DEFAULT_VEHTYPE" fromTaz="T1_680_1" toTaz="T1_17_1" departLane="free" departSpeed="max"/>
  <trip id="2917" depart="3.74" from="93631240" to="4786685" type="DEFAULT_VEHTYPE" fromTaz="T1_680_1" toTaz="T1_280_1" departLane="free" departSpeed="max"/>
  <trip id="4326" depart="3.77" from="8926666" to="992584129" type="DEFAULT_VEHTYPE" fromTaz="T1_680_1" toTaz="T1_880_1" departLane="free" departSpeed="max"/>
  <trip id="13" depart="3.81" from="8927038#1" to="394385111" type="DEFAULT_VEHTYPE" fromTaz="T1_680_1" toTaz="T1_101_1" departLane="free" departSpeed="max"/>
  <trip id="1497" depart="3.91" from="957460911" to="966059358" type="DEFAULT_VEHTYPE" fromTaz="T1_680_1" toTaz="T1_17_1" departLane="free" departSpeed="max"/>
  <trip id="4327" depart="3.92" from="8926666" to="992584129" type="DEFAULT_VEHTYPE" fromTaz="T1_680_1" toTaz="T1_880_1" departLane="free" departSpeed="max"/>
  <trip id="1067" depart="3.96" from="93631240" to="515733343" type="DEFAULT_VEHTYPE" fromTaz="T1_680_1" toTaz="T1_101_2" departLane="free" departSpeed="max"/>
  <trip id="2918" depart="3.96" from="93631240" to="4786685" type="DEFAULT_VEHTYPE" fromTaz="T1_680_1" toTaz="T1_280_1" departLane="free" departSpeed="max"/>
  <trip id="4328" depart="4.07" from="8926666" to="992584129" type="DEFAULT_VEHTYPE" fromTaz="T1_680_1" toTaz="T1_880_1" departLane="free" departSpeed="max"/>
  <trip id="14" depart="4.10" from="8927038#1" to="394385111" type="DEFAULT_VEHTYPE" fromTaz="T1_680_1" toTaz="T1_101_1" departLane="free" departSpeed="max"/>
  <trip id="1498" depart="4.12" from="957460911" to="966059358" type="DEFAULT_VEHTYPE" fromTaz="T1_680_1" toTaz="T1_17_1" departLane="free" departSpeed="max"/>
  <trip id="2919" depart="4.17" from="93631240" to="4786685" type="DEFAULT_VEHTYPE" fromTaz="T1_680_1" toTaz="T1_280_1" departLane="free" departSpeed="max"/>
  <trip id="4329" depart="4.23" from="8926666" to="992584129" type="DEFAULT_VEHTYPE" fromTaz="T1_680_1" toTaz="T1_880_1" departLane="free" departSpeed="max"/>
  <trip id="1499" depart="4.33" from="957460911" to="966059358" type="DEFAULT_VEHTYPE" fromTaz="T1_680_1" toTaz="T1_17_1" departLane="free" departSpeed="max"/>
  <trip id="15" depart="4.38" from="8927038#1" to="394385111" type="DEFAULT_VEHTYPE" fromTaz="T1_680_1" toTaz="T1_101_1" departLane="free" departSpeed="max"/>
  <trip id="4330" depart="4.38" from="8926666" to="992584129" type="DEFAULT_VEHTYPE" fromTaz="T1_680_1" toTaz="T1_880_1" departLane="free" departSpeed="max"/>
  <trip id="2920" depart="4.39" from="93631240" to="4786685" type="DEFAULT_VEHTYPE" fromTaz="T1_680_1" toTaz="T1_280_1" departLane="free" departSpeed="max"/>
  <trip id="4331" depart="4.53" from="8926666" to="992584129" type="DEFAULT_VEHTYPE" fromTaz="T1_680_1" toTaz="T1_880_1" departLane="free" departSpeed="max"/>
  <trip id="1500" depart="4.54" from="957460911" to="966059358" type="DEFAULT_VEHTYPE" fromTaz="T1_680_1" toTaz="T1_17_1" departLane="free" departSpeed="max"/>
  <trip id="2921" depart="4.60" from="93631240" to="4786685" type="DEFAULT_VEHTYPE" fromTaz="T1_680_1" toTaz="T1_280_1" departLane="free" departSpeed="max"/>
  <trip id="16" depart="4.66" from="8927038#1" to="394385111" type="DEFAULT_VEHTYPE" fromTaz="T1_680_1" toTaz="T1_101_1" departLane="free" departSpeed="max"/>
  <trip id="1068" depart="4.68" from="93631240" to="515733343" type="DEFAULT_VEHTYPE" fromTaz="T1_680_1" toTaz="T1_101_2" departLane="free" departSpeed="max"/>
  <trip id="4332" depart="4.69" from="8926666" to="992584129" type="DEFAULT_VEHTYPE" fromTaz="T1_680_1" toTaz="T1_880_1" departLane="free" departSpeed="max"/>
  <trip id="1501" depart="4.75" from="957460911" to="966059358" type="DEFAULT_VEHTYPE" fromTaz="T1_680_1" toTaz="T1_17_1" departLane="free" departSpeed="max"/>
  <trip id="2922" depart="4.81" from="93631240" to="4786685" type="DEFAULT_VEHTYPE" fromTaz="T1_680_1" toTaz="T1_280_1" departLane="free" departSpeed="max"/>
  <trip id="4333" depart="4.84" from="8926666" to="992584129" type="DEFAULT_VEHTYPE" fromTaz="T1_680_1" toTaz="T1_880_1" departLane="free" departSpeed="max"/>
  <trip id="17" depart="4.94" from="8927038#1" to="394385111" type="DEFAULT_VEHTYPE" fromTaz="T1_680_1" toTaz="T1_101_1" departLane="free" departSpeed="max"/>
  <trip id="1502" depart="4.96" from="957460911" to="966059358" type="DEFAULT_VEHTYPE" fromTaz="T1_680_1" toTaz="T1_17_1" departLane="free" departSpeed="max"/>
  <trip id="4334" depart="4.99" from="8926666" to="992584129" type="DEFAULT_VEHTYPE" fromTaz="T1_680_1" toTaz="T1_880_1" departLane="free" departSpeed="max"/>
  <trip id="2923" depart="5.03" from="93631240" to="4786685" type="DEFAULT_VEHTYPE" fromTaz="T1_680_1" toTaz="T1_280_1" departLane="free" departSpeed="max"/>
  <trip id="4335" depart="5.15" from="8926666" to="992584129" type="DEFAULT_VEHTYPE" fromTaz="T1_680_1" toTaz="T1_880_1" departLane="free" departSpeed="max"/>
  <trip id="1503" depart="5.17" from="957460911" to="966059358" type="DEFAULT_VEHTYPE" fromTaz="T1_680_1" toTaz="T1_17_1" departLane="free" departSpeed="max"/>
  <trip id="18" depart="5.23" from="8927038#1" to="394385111" type="DEFAULT_VEHTYPE" fromTaz="T1_680_1" toTaz="T1_101_1" departLane="free" departSpeed="max"/>
  <trip id="2924" depart="5.24" from="93631240" to="4786685" type="DEFAULT_VEHTYPE" fromTaz="T1_680_1" toTaz="T1_280_1" departLane="free" departSpeed="max"/>
  <trip id="4336" depart="5.30" from="8926666" to="992584129" type="DEFAULT_VEHTYPE" fromTaz="T1_680_1" toTaz="T1_880_1" departLane="free" departSpeed="max"/>
  <trip id="1504" depart="5.38" from="957460911" to="966059358" type="DEFAULT_VEHTYPE" fromTaz="T1_680_1" toTaz="T1_17_1" departLane="free" departSpeed="max"/>
  <trip id="1069" depart="5.40" from="93631240" to="515733343" type="DEFAULT_VEHTYPE" fromTaz="T1_680_1" toTaz="T1_101_2" departLane="free" departSpeed="max"/>
  <trip id="4337" depart="5.46" from="8926666" to="992584129" type="DEFAULT_VEHTYPE" fromTaz="T1_680_1" toTaz="T1_880_1" departLane="free" departSpeed="max"/>
  <trip id="2925" depart="5.46" from="93631240" to="4786685" type="DEFAULT_VEHTYPE" fromTaz="T1_680_1" toTaz="T1_280_1" departLane="free" departSpeed="max"/>
  <trip id="19" depart="5.51" from="8927038#1" to="394385111" type="DEFAULT_VEHTYPE" fromTaz="T1_680_1" toTaz="T1_101_1" departLane="free" departSpeed="max"/>
  <trip id="1505" depart="5.59" from="957460911" to="966059358" type="DEFAULT_VEHTYPE" fromTaz="T1_680_1" toTaz="T1_17_1" departLane="free" departSpeed="max"/>
  <trip id="4338" depart="5.61" from="8926666" to="992584129" type="DEFAULT_VEHTYPE" fromTaz="T1_680_1" toTaz="T1_880_1" departLane="free" departSpeed="max"/>
  <trip id="2926" depart="5.67" from="93631240" to="4786685" type="DEFAULT_VEHTYPE" fromTaz="T1_680_1" toTaz="T1_280_1" departLane="free" departSpeed="max"/>
  <trip id="4339" depart="5.76" from="8926666" to="992584129" type="DEFAULT_VEHTYPE" fromTaz="T1_680_1" toTaz="T1_880_1" departLane="free" departSpeed="max"/>
  <trip id="20" depart="5.79" from="8927038#1" to="394385111" type="DEFAULT_VEHTYPE" fromTaz="T1_680_1" toTaz="T1_101_1" departLane="free" departSpeed="max"/>
  <trip id="1506" depart="5.81" from="957460911" to="966059358" type="DEFAULT_VEHTYPE" fromTaz="T1_680_1" toTaz="T1_17_1" departLane="free" departSpeed="max"/>
  <trip id="2927" depart="5.88" from="93631240" to="4786685" type="DEFAULT_VEHTYPE" fromTaz="T1_680_1" toTaz="T1_280_1" departLane="free" departSpeed="max"/>
  <trip id="4340" depart="5.92" from="8926666" to="992584129" type="DEFAULT_VEHTYPE" fromTaz="T1_680_1" toTaz="T1_880_1" departLane="free" departSpeed="max"/>
  <trip id="1507" depart="6.02" from="957460911" to="966059358" type="DEFAULT_VEHTYPE" fromTaz="T1_680_1" toTaz="T1_17_1" departLane="free" departSpeed="max"/>
  <trip id="4341" depart="6.07" from="8926666" to="992584129" type="DEFAULT_VEHTYPE" fromTaz="T1_680_1" toTaz="T1_880_1" departLane="free" departSpeed="max"/>
  <trip id="21" depart="6.07" from="8927038#1" to="394385111" type="DEFAULT_VEHTYPE" fromTaz="T1_680_1" toTaz="T1_101_1" departLane="free" departSpeed="max"/>
  <trip id="2928" depart="6.10" from="93631240" to="4786685" type="DEFAULT_VEHTYPE" fromTaz="T1_680_1" toTaz="T1_280_1" departLane="free" departSpeed="max"/>
  <trip id="1070" depart="6.12" from="93631240" to="515733343" type="DEFAULT_VEHTYPE" fromTaz="T1_680_1" toTaz="T1_101_2" departLane="free" departSpeed="max"/>
  <trip id="4342" depart="6.22" from="8926666" to="992584129" type="DEFAULT_VEHTYPE" fromTaz="T1_680_1" toTaz="T1_880_1" departLane="free" departSpeed="max"/>
  <trip id="1508" depart="6.23" from="957460911" to="966059358" type="DEFAULT_VEHTYPE" fromTaz="T1_680_1" toTaz="T1_17_1" departLane="free" departSpeed="max"/>
  <trip id="2929" depart="6.31" from="93631240" to="4786685" type="DEFAULT_VEHTYPE" fromTaz="T1_680_1" toTaz="T1_280_1" departLane="free" departSpeed="max"/>
  <trip id="22" depart="6.36" from="8927038#1" to="394385111" type="DEFAULT_VEHTYPE" fromTaz="T1_680_1" toTaz="T1_101_1" departLane="free" departSpeed="max"/>
  <trip id="4343" depart="6.38" from="8926666" to="992584129" type="DEFAULT_VEHTYPE" fromTaz="T1_680_1" toTaz="T1_880_1" departLane="free" departSpeed="max"/>
  <trip id="1509" depart="6.44" from="957460911" to="966059358" type="DEFAULT_VEHTYPE" fromTaz="T1_680_1" toTaz="T1_17_1" departLane="free" departSpeed="max"/>
  <trip id="4344" depart="6.53" from="8926666" to="992584129" type="DEFAULT_VEHTYPE" fromTaz="T1_680_1" toTaz="T1_880_1" departLane="free" departSpeed="max"/>
  <trip id="2930" depart="6.53" from="93631240" to="4786685" type="DEFAULT_VEHTYPE" fromTaz="T1_680_1" toTaz="T1_280_1" departLane="free" departSpeed="max"/>
  <trip id="23" depart="6.64" from="8927038#1" to="394385111" type="DEFAULT_VEHTYPE" fromTaz="T1_680_1" toTaz="T1_101_1" departLane="free" departSpeed="max"/>
  <trip id="1510" depart="6.65" from="957460911" to="966059358" type="DEFAULT_VEHTYPE" fromTaz="T1_680_1" toTaz="T1_17_1" departLane="free" departSpeed="max"/>
  <trip id="4345" depart="6.69" from="8926666" to="992584129" type="DEFAULT_VEHTYPE" fromTaz="T1_680_1" toTaz="T1_880_1" departLane="free" departSpeed="max"/>
  <trip id="2931" depart="6.74" from="93631240" to="4786685" type="DEFAULT_VEHTYPE" fromTaz="T1_680_1" toTaz="T1_280_1" departLane="free" departSpeed="max"/>
  <trip id="1071" depart="6.83" from="93631240" to="515733343" type="DEFAULT_VEHTYPE" fromTaz="T1_680_1" toTaz="T1_101_2" departLane="free" departSpeed="max"/>
  <trip id="4346" depart="6.84" from="8926666" to="992584129" type="DEFAULT_VEHTYPE" fromTaz="T1_680_1" toTaz="T1_880_1" departLane="free" departSpeed="max"/>
  <trip id="1511" depart="6.86" from="957460911" to="966059358" type="DEFAULT_VEHTYPE" fromTaz="T1_680_1" toTaz="T1_17_1" departLane="free" departSpeed="max"/>
  <trip id="24" depart="6.92" from="8927038#1" to="394385111" type="DEFAULT_VEHTYPE" fromTaz="T1_680_1" toTaz="T1_101_1" departLane="free" departSpeed="max"/>
  <trip id="2932" depart="6.95" from="93631240" to="4786685" type="DEFAULT_VEHTYPE" fromTaz="T1_680_1" toTaz="T1_280_1" departLane="free" departSpeed="max"/>
  <trip id="4347" depart="6.99" from="8926666" to="992584129" type="DEFAULT_VEHTYPE" fromTaz="T1_680_1" toTaz="T1_880_1" departLane="free" departSpeed="max"/>
  <trip id="1512" depart="7.07" from="957460911" to="966059358" type="DEFAULT_VEHTYPE" fromTaz="T1_680_1" toTaz="T1_17_1" departLane="free" departSpeed="max"/>
  <trip id="4348" depart="7.15" from="8926666" to="992584129" type="DEFAULT_VEHTYPE" fromTaz="T1_680_1" toTaz="T1_880_1" departLane="free" departSpeed="max"/>
  <trip id="2933" depart="7.17" from="93631240" to="4786685" type="DEFAULT_VEHTYPE" fromTaz="T1_680_1" toTaz="T1_280_1" departLane="free" departSpeed="max"/>
  <trip id="25" depart="7.20" from="8927038#1" to="394385111" type="DEFAULT_VEHTYPE" fromTaz="T1_680_1" toTaz="T1_101_1" departLane="free" departSpeed="max"/>
  <trip id="1513" depart="7.28" from="957460911" to="966059358" type="DEFAULT_VEHTYPE" fromTaz="T1_680_1" toTaz="T1_17_1" departLane="free" departSpeed="max"/>
  <trip id="4349" depart="7.30" from="8926666" to="992584129" type="DEFAULT_VEHTYPE" fromTaz="T1_680_1" toTaz="T1_880_1" departLane="free" departSpeed="max"/>
  <trip id="2934" depart="7.38" from="93631240" to="4786685" type="DEFAULT_VEHTYPE" fromTaz="T1_680_1" toTaz="T1_280_1" departLane="free" departSpeed="max"/>
  <trip id="4350" depart="7.45" from="8926666" to="992584129" type="DEFAULT_VEHTYPE" fromTaz="T1_680_1" toTaz="T1_880_1" departLane="free" departSpeed="max"/>
  <trip id="1514" depart="7.49" from="957460911" to="966059358" type="DEFAULT_VEHTYPE" fromTaz="T1_680_1" toTaz="T1_17_1" departLane="free" departSpeed="max"/>
  <trip id="26" depart="7.49" from="8927038#1" to="394385111" type="DEFAULT_VEHTYPE" fromTaz="T1_680_1" toTaz="T1_101_1" departLane="free" departSpeed="max"/>
  <trip id="1072" depart="7.55" from="93631240" to="515733343" type="DEFAULT_VEHTYPE" fromTaz="T1_680_1" toTaz="T1_101_2" departLane="free" departSpeed="max"/>
  <trip id="2935" depart="7.60" from="93631240" to="4786685" type="DEFAULT_VEHTYPE" fromTaz="T1_680_1" toTaz="T1_280_1" departLane="free" departSpeed="max"/>
  <trip id="4351" depart="7.61" from="8926666" to="992584129" type="DEFAULT_VEHTYPE" fromTaz="T1_680_1" toTaz="T1_880_1" departLane="free" departSpeed="max"/>
  <trip id="1515" depart="7.71" from="957460911" to="966059358" type="DEFAULT_VEHTYPE" fromTaz="T1_680_1" toTaz="T1_17_1" departLane="free" departSpeed="max"/>
  <trip id="4352" depart="7.76" from="8926666" to="992584129" type="DEFAULT_VEHTYPE" fromTaz="T1_680_1" toTaz="T1_880_1" departLane="free" departSpeed="max"/>
  <trip id="27" depart="7.77" from="8927038#1" to="394385111" type="DEFAULT_VEHTYPE" fromTaz="T1_680_1" toTaz="T1_101_1" departLane="free" departSpeed="max"/>
  <trip id="2936" depart="7.81" from="93631240" to="4786685" type="DEFAULT_VEHTYPE" fromTaz="T1_680_1" toTaz="T1_280_1" departLane="free" departSpeed="max"/>
  <trip id="4353" depart="7.91" from="8926666" to="992584129" type="DEFAULT_VEHTYPE" fromTaz="T1_680_1" toTaz="T1_880_1" departLane="free" departSpeed="max"/>
  <trip id="1516" depart="7.92" from="957460911" to="966059358" type="DEFAULT_VEHTYPE" fromTaz="T1_680_1" toTaz="T1_17_1" departLane="free" departSpeed="max"/>
  <trip id="2937" depart="8.02" from="93631240" to="4786685" type="DEFAULT_VEHTYPE" fromTaz="T1_680_1" toTaz="T1_280_1" departLane="free" departSpeed="max"/>
  <trip id="28" depart="8.05" from="8927038#1" to="394385111" type="DEFAULT_VEHTYPE" fromTaz="T1_680_1" toTaz="T1_101_1" departLane="free" departSpeed="max"/>
  <trip id="4354" depart="8.07" from="8926666" to="992584129" type="DEFAULT_VEHTYPE" fromTaz="T1_680_1" toTaz="T1_880_1" departLane="free" departSpeed="max"/>
  <trip id="1517" depart="8.13" from="957460911" to="966059358" type="DEFAULT_VEHTYPE" fromTaz="T1_680_1" toTaz="T1_17_1" departLane="free" departSpeed="max"/>
  <trip id="4355" depart="8.22" from="8926666" to="992584129" type="DEFAULT_VEHTYPE" fromTaz="T1_680_1" toTaz="T1_880_1" departLane="free" departSpeed="max"/>
  <trip id="2938" depart="8.24" from="93631240" to="4786685" type="DEFAULT_VEHTYPE" fromTaz="T1_680_1" toTaz="T1_280_1" departLane="free" departSpeed="max"/>
  <trip id="1073" depart="8.27" from="93631240" to="515733343" type="DEFAULT_VEHTYPE" fromTaz="T1_680_1" toTaz="T1_101_2" departLane="free" departSpeed="max"/>
  <trip id="29" depart="8.33" from="8927038#1" to="394385111" type="DEFAULT_VEHTYPE" fromTaz="T1_680_1" toTaz="T1_101_1" departLane="free" departSpeed="max"/>
  <trip id="1518" depart="8.34" from="957460911" to="966059358" type="DEFAULT_VEHTYPE" fromTaz="T1_680_1" toTaz="T1_17_1" departLane="free" departSpeed="max"/>
  <trip id="4356" depart="8.38" from="8926666" to="992584129" type="DEFAULT_VEHTYPE" fromTaz="T1_680_1" toTaz="T1_880_1" departLane="free" departSpeed="max"/>
  <trip id="2939" depart="8.45" from="93631240" to="4786685" type="DEFAULT_VEHTYPE" fromTaz="T1_680_1" toTaz="T1_280_1" departLane="free" departSpeed="max"/>
  <trip id="4357" depart="8.53" from="8926666" to="992584129" type="DEFAULT_VEHTYPE" fromTaz="T1_680_1" toTaz="T1_880_1" departLane="free" departSpeed="max"/>
  <trip id="1519" depart="8.55" from="957460911" to="966059358" type="DEFAULT_VEHTYPE" fromTaz="T1_680_1" toTaz="T1_17_1" departLane="free" departSpeed="max"/>
  <trip id="30" depart="8.62" from="8927038#1" to="394385111" type="DEFAULT_VEHTYPE" fromTaz="T1_680_1" toTaz="T1_101_1" departLane="free" departSpeed="max"/>
  <trip id="2940" depart="8.67" from="93631240" to="4786685" type="DEFAULT_VEHTYPE" fromTaz="T1_680_1" toTaz="T1_280_1" departLane="free" departSpeed="max"/>
  <trip id="4358" depart="8.68" from="8926666" to="992584129" type="DEFAULT_VEHTYPE" fromTaz="T1_680_1" toTaz="T1_880_1" departLane="free" departSpeed="max"/>
  <trip id="1520" depart="8.76" from="957460911" to="966059358" type="DEFAULT_VEHTYPE" fromTaz="T1_680_1" toTaz="T1_17_1" departLane="free" departSpeed="max"/>
  <trip id="4359" depart="8.84" from="8926666" to="992584129" type="DEFAULT_VEHTYPE" fromTaz="T1_680_1" toTaz="T1_880_1" departLane="free" departSpeed="max"/>
  <trip id="2941" depart="8.88" from="93631240" to="4786685" type="DEFAULT_VEHTYPE" fromTaz="T1_680_1" toTaz="T1_280_1" departLane="free" departSpeed="max"/>
  <trip id="31" depart="8.90" from="8927038#1" to="394385111" type="DEFAULT_VEHTYPE" fromTaz="T1_680_1" toTaz="T1_101_1" departLane="free" departSpeed="max"/>
  <trip id="1521" depart="8.97" from="957460911" to="966059358" type="DEFAULT_VEHTYPE" fromTaz="T1_680_1" toTaz="T1_17_1" departLane="free" departSpeed="max"/>
  <trip id="1074" depart="8.99" from="93631240" to="515733343" type="DEFAULT_VEHTYPE" fromTaz="T1_680_1" toTaz="T1_101_2" departLane="free" departSpeed="max"/>