<?xml version="1.0" encoding="UTF-8"?>

<!-- generated on 2025-01-28 13:29:50 by Eclipse SUMO duarouter Version 1.21.0
<duarouterConfiguration xmlns:xsi="http://www.w3.org/2001/XMLSchema-instance" xsi:noNamespaceSchemaLocation="http://sumo.dlr.de/xsd/duarouterConfiguration.xsd">

    <input>
        <net-file value=".\net.xml"/>
        <route-files value=".\vClass.add.xml,.\odfile.odtrips.xml"/>
    </input>

    <output>
        <output-file value=".\route.rou.xml"/>
    </output>

</duarouterConfiguration>
-->

<routes xmlns:xsi="http://www.w3.org/2001/XMLSchema-instance" xsi:noNamespaceSchemaLocation="http://sumo.dlr.de/xsd/routes_file.xsd">
    <vType id="pc" length="5.00" maxSpeed="55.55" vClass="passenger" laneChangeModel="LC2013" lcStrategic="0" lcCooperative="1" lcSpeedGain="10" lcKeepRight="0" lcAssertive="1" lcOvertakeRight="0.9999" accel="2.6" decel="4.5" sigma="0.3"/>
    <vehicle id="pc245" type="pc" depart="11.12" departLane="free" departSpeed="max" fromTaz="T1_680_1" toTaz="T1_17_1">
        <route edges="93631344 8927038#1 552389451 617284172 23955194 942219372 942219371 28396117 28396115#0 28396115#1 28588884 28588888 850615424 850615423 28464671 28464668 942228866 508115730 508115731 617284166 28378890 28378888#0 28378888#1 28413845 28413844 508115743 508115744 544299032 508115745 31559321 31559320 52286754 52286756#0 52286756#1 31559311 158245363 31559312 959075971 31559315 31559316 498017763 619042922 619042923 28359106 28359104 959075949 28359068 28359059 924390040 959075951 28359016 959075950 28359013 28358963 760399064 28358961 959075964 28358874#0 28358874#1 860646752 959075963 955977944 158245364 768291603 967219595 967219596 27829315 961480477 617284142 961480478 261596720 28357725 28357724 961480485 961480484 28357714 28357715 28357705 28357704 23798288 942089751 617235585 961480529 922483578 124952168 922483579 961480530 33068788 354924841 25657128 8925953 946453068 965564172 261596707 395336999 965564173 395336990 395336979 395336984 33104342 26174374 28432481 28432567 965853345 28432568 965853344 395336991 6240692 28665771 28665770 921643570 965853361 921643571 965853376 119271337 28317586 966059356 947811854 60723578 940408568 966059357 508060359 966059376 517849947 517849945 508060360 155667053 850757718"/>
    </vehicle>
    <vehicle id="pc2524" type="pc" depart="19.73" departLane="free" departSpeed="max" fromTaz="T1_680_1" toTaz="T1_280_1">
        <route edges="93631240 93631330 93631344 8927038#1 552389451 617284172 23955194 942219372 942219371 28396117 28396115#0 28396115#1 28588884 28588888 850615424 850615423 28464671 28464668 942228866 508115730 508115731 617284166 28378890 28378888#0 28378888#1 28413845 28413844 508115743 508115744 544299032 508115745 31559321 31559320 52286754 52286756#0 52286756#1 31559311 158245363 31559312 959075971 31559315 31559316 498017763 619042922 619042923 28359106 28359104 959075949 28359068 28359059 924390040 959075951 28359016 959075950 28359013 28358963 760399064 28358961 959075964 28358874#0 28358874#1 860646752 959075963 955977944 158245364 768291603 967219595 967219596 27829315 961480477 617284142 961480478 261596720 28357725 28357724 961480485 961480484 28357714 28357715 28357705 28357704 23798288 942089751 617235585 961480529 922483578 124952168 922483579 961480530 261596722 967219588 261596721 517926100 123867454 123867425 961425253 23798287 961425261 861058478 5031893 967219584 28435620 28435621 967219586 854215625 967415326 848876834 967415329 617284141 27925162 27925164 41934020 617235615 850098171 967415397 967415396 967415393 850098170 967415403 158623065 850057341 967415408 850057340 967415496 875173184 967415498 850026982 850026981 967501781 617235607 20894099 517836093 416943095#0 416943095#1 343498596"/>
    </vehicle>
    <vehicle id="pc1752" type="pc" depart="35.00" departLane="free" departSpeed="max" fromTaz="T1_680_1" toTaz="T1_17_1">
        <route edges="123867451 552389451 617284172 23955194 942219372 942219371 28396117 28396115#0 28396115#1 28588884 28588888 850615424 850615423 28464671 28464668 942228866 508115730 508115731 617284166 28378890 28378888#0 28378888#1 28413845 28413844 508115743 508115744 544299032 508115745 31559321 31559320 52286754 52286756#0 52286756#1 31559311 158245363 31559312 959075971 31559315 31559316 498017763 619042922 619042923 28359106 28359104 959075949 28359068 28359059 924390040 959075951 28359016 959075950 28359013 28358963 760399064 28358961 959075964 28358874#0 28358874#1 860646752 959075963 955977944 158245364 768291603 967219595 967219596 27829315 961480477 617284142 961480478 261596720 28357725 28357724 961480485 961480484 28357714 28357715 28357705 28357704 23798288 942089751 617235585 961480529 922483578 124952168 922483579 961480530 33068788 354924841 25657128 8925953 946453068 965564172 261596707 395336999 965564173 395336990 395336979 395336984 33104342 26174374 28432481 28432567 965853345 28432568 965853344 395336991 6240692 28665771 28665770 921643570 965853361 921643571 965853376 119271337 28317586 966059356 947811854 60723578 940408568 966059357 508060359 966059376 517849947 517849945"/>
    </vehicle>
    <vehicle id="pc772" type="pc" depart="47.95" departLane="free" departSpeed="max" fromTaz="T1_680_1" toTaz="T1_17_1">
        <route edges="51383539 51383535 123867451 552389451 617284172 23955194 942219372 942219371 28396117 28396115#0 28396115#1 28588884 28588888 850615424 850615423 28464671 28464668 942228866 508115730 508115731 617284166 28378890 28378888#0 28378888#1 28413845 28413844 508115743 508115744 544299032 508115745 31559321 31559320 52286754 52286756#0 52286756#1 31559311 158245363 31559312 959075971 31559315 31559316 498017763 619042922 619042923 28359106 28359104 959075949 28359068 28359059 924390040 959075951 28359016 959075950 28359013 28358963 760399064 28358961 959075964 28358874#0 28358874#1 860646752 959075963 955977944 158245364 768291603 967219595 967219596 27829315 961480477 617284142 961480478 261596720 28357725 28357724 961480485 961480484 28357714 28357715 28357705 28357704 23798288 942089751 617235585 961480529 922483578 124952168 922483579 961480530 33068788 354924841 25657128 8925953 946453068 965564172 261596707 395336999 965564173 395336990 395336979 395336984 33104342 26174374 28432481 28432567 965853345 28432568 965853344 395336991 6240692 28665771 28665770 921643570 965853361 921643571 965853376 119271337 28317586 966059356 947811854 60723578 940408568 966059357 508060359 966059376 517849947 517849945"/>
    </vehicle>
    <vehicle id="pc1677" type="pc" depart="53.94" departLane="free" departSpeed="max" fromTaz="T1_680_1" toTaz="T1_17_1">
        <route edges="8926666 93631330 93631344 8927038#1 552389451 617284172 23955194 942219372 942219371 28396117 28396115#0 28396115#1 28588884 28588888 850615424 850615423 28464671 28464668 942228866 508115730 508115731 617284166 28378890 28378888#0 28378888#1 28413845 28413844 508115743 508115744 544299032 508115745 31559321 31559320 52286754 52286756#0 52286756#1 31559311 158245363 31559312 959075971 31559315 31559316 498017763 619042922 619042923 28359106 28359104 959075949 28359068 28359059 924390040 959075951 28359016 959075950 28359013 28358963 760399064 28358961 959075964 28358874#0 28358874#1 860646752 959075963 955977944 158245364 768291603 967219595 967219596 27829315 961480477 617284142 961480478 261596720 28357725 28357724 961480485 961480484 28357714 28357715 28357705 28357704 23798288 942089751 617235585 961480529 922483578 124952168 922483579 961480530 33068788 354924841 25657128 8925953 946453068 965564172 261596707 395336999 965564173 395336990 395336979 395336984 33104342 26174374 28432481 28432567 965853345 28432568 965853344 395336991 6240692 28665771 28665770 921643570 965853361 921643571 965853376 119271337 28317586 966059356 947811854 60723578 940408568 966059357 508060359 966059376 517849947 517849945"/>
    </vehicle>
    <vehicle id="pc1950" type="pc" depart="55.13" departLane="free" departSpeed="max" fromTaz="T1_680_1" toTaz="T1_17_1">
        <route edges="848429239 848429238 156651843 51383539 51383535 123867451 552389451 617284172 23955194 942219372 942219371 28396117 28396115#0 28396115#1 28588884 28588888 850615424 850615423 28464671 28464668 942228866 508115730 508115731 617284166 28378890 28378888#0 28378888#1 28413845 28413844 508115743 508115744 544299032 508115745 31559321 31559320 52286754 52286756#0 52286756#1 31559311 158245363 31559312 959075971 31559315 31559316 498017763 619042922 619042923 28359106 28359104 959075949 28359068 28359059 924390040 959075951 28359016 959075950 28359013 28358963 760399064 28358961 959075964 28358874#0 28358874#1 860646752 959075963 955977944 158245364 768291603 967219595 967219596 27829315 961480477 617284142 961480478 261596720 28357725 28357724 961480485 961480484 28357714 28357715 28357705 28357704 23798288 942089751 617235585 961480529 922483578 124952168 922483579 961480530 33068788 354924841 25657128 8925953 946453068 965564172 261596707 395336999 965564173 395336990 395336979 395336984 33104342 26174374 28432481 28432567 965853345 28432568 965853344 395336991 6240692 28665771 28665770 921643570 965853361 921643571 965853376 119271337 28317586 966059356 947811854 60723578 940408568 966059357 508060359 966059376 517849947 517849945 508060360"/>
    </vehicle>
    <vehicle id="pc2408" type="pc" depart="66.85" departLane="free" departSpeed="max" fromTaz="T1_680_1" toTaz="T1_280_1">
        <route edges="51383535 123867451 552389451 617284172 23955194 942219372 942219371 28396117 28396115#0 28396115#1 28588884 28588888 850615424 850615423 28464671 28464668 942228866 508115730 508115731 617284166 28378890 28378888#0 28378888#1 28413845 28413844 508115743 508115744 544299032 508115745 31559321 31559320 52286754 52286756#0 52286756#1 31559311 158245363 31559312 959075971 31559315 31559316 498017763 619042922 619042923 28359106 28359104 959075949 28359068 28359059 924390040 959075951 28359016 959075950 28359013 28358963 760399064 28358961 959075964 28358874#0 28358874#1 860646752 959075963 955977944 158245364 768291603 967219595 967219596 27829315 961480477 617284142 961480478 261596720 28357725 28357724 961480485 961480484 28357714 28357715 28357705 28357704 23798288 942089751 617235585 961480529 922483578 124952168 922483579 961480530 261596722 967219588 261596721 517926100 123867454 123867425 961425253 23798287 961425261 861058478 5031893 967219584 28435620 28435621 967219586 854215625 967415326 848876834 967415329 617284141 27925162 27925164 41934020 617235615 850098171 967415397 967415396 967415393 850098170 967415403 158623065 850057341 967415408 850057340 967415496 875173184 967415498 850026982 850026981 967501781 617235607 942093178"/>
    </vehicle>
    <vehicle id="pc1076" type="pc" depart="72.86" departLane="free" departSpeed="max" fromTaz="T1_680_1" toTaz="T1_17_1">
        <route edges="8926663 552389450 93631240 93631330 93631344 8927038#1 552389451 617284172 23955194 942219372 942219371 28396117 28396115#0 28396115#1 28588884 28588888 850615424 850615423 28464671 28464668 942228866 508115730 508115731 617284166 28378890 28378888#0 28378888#1 28413845 28413844 508115743 508115744 544299032 508115745 31559321 31559320 52286754 52286756#0 52286756#1 31559311 158245363 31559312 959075971 31559315 31559316 498017763 619042922 619042923 28359106 28359104 959075949 28359068 28359059 924390040 959075951 28359016 959075950 28359013 28358963 760399064 28358961 959075964 28358874#0 28358874#1 860646752 959075963 955977944 158245364 768291603 967219595 967219596 27829315 961480477 617284142 961480478 261596720 28357725 28357724 961480485 961480484 28357714 28357715 28357705 28357704 23798288 942089751 617235585 961480529 922483578 124952168 922483579 961480530 33068788 354924841 25657128 8925953 946453068 965564172 261596707 395336999 965564173 395336990 395336979 395336984 33104342 26174374 28432481 28432567 965853345 28432568 965853344 395336991 6240692 28665771 28665770 921643570 965853361 921643571 965853376 119271337 28317586 966059356 947811854 60723578 940408568 966059357 966059358 28317882 28317926#0 28317926#1"/>
    </vehicle>
    <vehicle id="pc587" type="pc" depart="73.98" departLane="free" departSpeed="max" fromTaz="T1_680_1" toTaz="T1_17_1">
        <route edges="51383539 51383535 123867451 552389451 617284172 23955194 942219372 942219371 28396117 28396115#0 28396115#1 28588884 28588888 850615424 850615423 28464671 28464668 942228866 508115730 508115731 617284166 28378890 28378888#0 28378888#1 28413845 28413844 508115743 508115744 544299032 508115745 31559321 31559320 52286754 52286756#0 52286756#1 31559311 158245363 31559312 959075971 31559315 31559316 498017763 619042922 619042923 28359106 28359104 959075949 28359068 28359059 924390040 959075951 28359016 959075950 28359013 28358963 760399064 28358961 959075964 28358874#0 28358874#1 860646752 959075963 955977944 158245364 768291603 967219595 967219596 27829315 961480477 617284142 961480478 261596720 28357725 28357724 961480485 961480484 28357714 28357715 28357705 28357704 23798288 942089751 617235585 961480529 922483578 124952168 922483579 961480530 33068788 354924841 25657128 8925953 946453068 965564172 261596707 395336999 965564173 395336990 395336979 395336984 33104342 26174374 28432481 28432567 965853345 28432568 965853344 395336991 6240692 28665771 28665770 921643570 965853361 921643571 965853376 119271337 28317586 966059356 947811854 60723578 940408568 966059357 508060359 966059376 517849947 517849945 508060360 155667053 850757718"/>
    </vehicle>
    <vehicle id="pc2545" type="pc" depart="74.54" departLane="free" departSpeed="max" fromTaz="T1_680_1" toTaz="T1_280_1">
        <route edges="51383539 51383535 123867451 552389451 617284172 23955194 942219372 942219371 28396117 28396115#0 28396115#1 28588884 28588888 850615424 850615423 28464671 28464668 942228866 508115730 508115731 617284166 28378890 28378888#0 28378888#1 28413845 28413844 508115743 508115744 544299032 508115745 31559321 31559320 52286754 52286756#0 52286756#1 31559311 158245363 31559312 959075971 31559315 31559316 498017763 619042922 619042923 28359106 28359104 959075949 28359068 28359059 924390040 959075951 28359016 959075950 28359013 28358963 760399064 28358961 959075964 28358874#0 28358874#1 860646752 959075963 955977944 158245364 768291603 967219595 967219596 27829315 961480477 617284142 961480478 261596720 28357725 28357724 961480485 961480484 28357714 28357715 28357705 28357704 23798288 942089751 617235585 961480529 922483578 124952168 922483579 961480530 261596722 967219588 261596721 517926100 123867454 123867425 961425253 23798287 961425261 861058478 5031893 967219584 28435620 28435621 967219586 854215625 967415326 848876834 967415329 617284141 27925162 27925164 41934020 617235615 850098171 967415397 967415396 967415393 850098170 967415403 158623065 850057341 967415408 850057340 967415496 875173184 967415498 850026982 850026981 967501781 617235607 942093178 4786685"/>
    </vehicle>
    <vehicle id="pc711" type="pc" depart="76.05" departLane="free" departSpeed="max" fromTaz="T1_680_1" toTaz="T1_17_1">
        <route edges="156651843 51383539 51383535 123867451 552389451 617284172 23955194 942219372 942219371 28396117 28396115#0 28396115#1 28588884 28588888 850615424 850615423 28464671 28464668 942228866 508115730 508115731 617284166 28378890 28378888#0 28378888#1 28413845 28413844 508115743 508115744 544299032 508115745 31559321 31559320 52286754 52286756#0 52286756#1 31559311 158245363 31559312 959075971 31559315 31559316 498017763 619042922 619042923 28359106 28359104 959075949 28359068 28359059 924390040 959075951 28359016 959075950 28359013 28358963 760399064 28358961 959075964 28358874#0 28358874#1 860646752 959075963 955977944 158245364 768291603 967219595 967219596 27829315 961480477 617284142 961480478 261596720 28357725 28357724 961480485 961480484 28357714 28357715 28357705 28357704 23798288 942089751 617235585 961480529 922483578 124952168 922483579 961480530 33068788 354924841 25657128 8925953 946453068 965564172 261596707 395336999 965564173 395336990 395336979 395336984 33104342 26174374 28432481 28432567 965853345 28432568 965853344 395336991 6240692 28665771 28665770 921643570 965853361 921643571 965853376 119271337 28317586 966059356 947811854 60723578 940408568 966059357 508060359 966059376 517849947 517849945"/>
    </vehicle>
    <vehicle id="pc111" type="pc" depart="81.63" departLane="free" departSpeed="max" fromTaz="T1_680_1" toTaz="T1_17_1">
        <route edges="552389449 848429239 848429238 156651843 51383539 51383535 123867451 552389451 617284172 23955194 942219372 942219371 28396117 28396115#0 28396115#1 28588884 28588888 850615424 850615423 28464671 28464668 942228866 508115730 508115731 617284166 28378890 28378888#0 28378888#1 28413845 28413844 508115743 508115744 544299032 508115745 31559321 31559320 52286754 52286756#0 52286756#1 31559311 158245363 31559312 959075971 31559315 31559316 498017763 619042922 619042923 28359106 28359104 959075949 28359068 28359059 924390040 959075951 28359016 959075950 28359013 28358963 760399064 28358961 959075964 28358874#0 28358874#1 860646752 959075963 955977944 158245364 768291603 967219595 967219596 27829315 961480477 617284142 961480478 261596720 28357725 28357724 961480485 961480484 28357714 28357715 28357705 28357704 23798288 942089751 617235585 961480529 922483578 124952168 922483579 961480530 33068788 354924841 25657128 8925953 946453068 965564172 261596707 395336999 965564173 395336990 395336979 395336984 33104342 26174374 28432481 28432567 965853345 28432568 965853344 395336991 6240692 28665771 28665770 921643570 965853361 921643571 965853376 119271337 28317586 966059356 947811854 60723578 940408568"/>
    </vehicle>
    <vehicle id="pc1006" type="pc" depart="89.14" departLane="free" departSpeed="max" fromTaz="T1_680_1" toTaz="T1_17_1">
        <route edges="848429239 848429238 156651843 51383539 51383535 123867451 552389451 617284172 23955194 942219372 942219371 28396117 28396115#0 28396115#1 28588884 28588888 850615424 850615423 28464671 28464668 942228866 508115730 508115731 617284166 28378890 28378888#0 28378888#1 28413845 28413844 508115743 508115744 544299032 508115745 31559321 31559320 52286754 52286756#0 52286756#1 31559311 158245363 31559312 959075971 31559315 31559316 498017763 619042922 619042923 28359106 28359104 959075949 28359068 28359059 924390040 959075951 28359016 959075950 28359013 28358963 760399064 28358961 959075964 28358874#0 28358874#1 860646752 959075963 955977944 158245364 768291603 967219595 967219596 27829315 961480477 617284142 961480478 261596720 28357725 28357724 961480485 961480484 28357714 28357715 28357705 28357704 23798288 942089751 617235585 961480529 922483578 124952168 922483579 961480530 33068788 354924841 25657128 8925953 946453068 965564172 261596707 395336999 965564173 395336990 395336979 395336984 33104342 26174374 28432481 28432567 965853345 28432568 965853344 395336991 6240692 28665771 28665770 921643570 965853361 921643571 965853376 119271337 28317586 966059356 947811854 60723578 940408568 966059357 508060359 966059376"/>
    </vehicle>
    <vehicle id="pc907" type="pc" depart="92.51" departLane="free" departSpeed="max" fromTaz="T1_680_1" toTaz="T1_17_1">
        <route edges="156651843 51383539 51383535 123867451 552389451 617284172 23955194 942219372 942219371 28396117 28396115#0 28396115#1 28588884 28588888 850615424 850615423 28464671 28464668 942228866 508115730 508115731 617284166 28378890 28378888#0 28378888#1 28413845 28413844 508115743 508115744 544299032 508115745 31559321 31559320 52286754 52286756#0 52286756#1 31559311 158245363 31559312 959075971 31559315 31559316 498017763 619042922 619042923 28359106 28359104 959075949 28359068 28359059 924390040 959075951 28359016 959075950 28359013 28358963 760399064 28358961 959075964 28358874#0 28358874#1 860646752 959075963 955977944 158245364 768291603 967219595 967219596 27829315 961480477 617284142 961480478 261596720 28357725 28357724 961480485 961480484 28357714 28357715 28357705 28357704 23798288 942089751 617235585 961480529 922483578 124952168 922483579 961480530 33068788 354924841 25657128 8925953 946453068 965564172 261596707 395336999 965564173 395336990 395336979 395336984 33104342 26174374 28432481 28432567 965853345 28432568 965853344 395336991 6240692 28665771 28665770 921643570 965853361 921643571 965853376 119271337 28317586 966059356 947811854 60723578 940408568 966059357 966059358 28317882 394110892 1179899628 28317884 394110893#0"/>
    </vehicle>
    <vehicle id="pc399" type="pc" depart="106.94" departLane="free" departSpeed="max" fromTaz="T1_680_1" toTaz="T1_17_1">
        <route edges="552389450 93631240 93631330 93631344 8927038#1 552389451 617284172 23955194 942219372 942219371 28396117 28396115#0 28396115#1 28588884 28588888 850615424 850615423 28464671 28464668 942228866 508115730 508115731 617284166 28378890 28378888#0 28378888#1 28413845 28413844 508115743 508115744 544299032 508115745 31559321 31559320 52286754 52286756#0 52286756#1 31559311 158245363 31559312 959075971 31559315 31559316 498017763 619042922 619042923 28359106 28359104 959075949 28359068 28359059 924390040 959075951 28359016 959075950 28359013 28358963 760399064 28358961 959075964 28358874#0 28358874#1 860646752 959075963 955977944 158245364 768291603 967219595 967219596 27829315 961480477 617284142 961480478 261596720 28357725 28357724 961480485 961480484 28357714 28357715 28357705 28357704 23798288 942089751 617235585 961480529 922483578 124952168 922483579 961480530 33068788 354924841 25657128 8925953 946453068 965564172 261596707 395336999 965564173 395336990 395336979 395336984 33104342 26174374 28432481 28432567 965853345 28432568 965853344 395336991 6240692 28665771 28665770 921643570 965853361 921643571 965853376 119271337 28317586 966059356 947811854 60723578 940408568 966059357 966059358 28317882 394110892 1179899628 28317884 394110893#0 394110893#1 -394110893#1 -394110893#0"/>
    </vehicle>
    <vehicle id="pc695" type="pc" depart="108.25" departLane="free" departSpeed="max" fromTaz="T1_680_1" toTaz="T1_17_1">
        <route edges="93631240 93631330 93631344 8927038#1 552389451 617284172 23955194 942219372 942219371 28396117 28396115#0 28396115#1 28588884 28588888 850615424 850615423 28464671 28464668 942228866 508115730 508115731 617284166 28378890 28378888#0 28378888#1 28413845 28413844 508115743 508115744 544299032 508115745 31559321 31559320 52286754 52286756#0 52286756#1 31559311 158245363 31559312 959075971 31559315 31559316 498017763 619042922 619042923 28359106 28359104 959075949 28359068 28359059 924390040 959075951 28359016 959075950 28359013 28358963 760399064 28358961 959075964 28358874#0 28358874#1 860646752 959075963 955977944 158245364 768291603 967219595 967219596 27829315 961480477 617284142 961480478 261596720 28357725 28357724 961480485 961480484 28357714 28357715 28357705 28357704 23798288 942089751 617235585 961480529 922483578 124952168 922483579 961480530 33068788 354924841 25657128 8925953 946453068 965564172 261596707 395336999 965564173 395336990 395336979 395336984 33104342 26174374 28432481 28432567 965853345 28432568 965853344 395336991 6240692 28665771 28665770 921643570 965853361 921643571 965853376 119271337 28317586 966059356 947811854 60723578 940408568 966059357"/>
    </vehicle>
    <vehicle id="pc960" type="pc" depart="120.35" departLane="free" departSpeed="max" fromTaz="T1_680_1" toTaz="T1_17_1">
        <route edges="848429238 156651843 51383539 51383535 123867451 552389451 617284172 23955194 942219372 942219371 28396117 28396115#0 28396115#1 28588884 28588888 850615424 850615423 28464671 28464668 942228866 508115730 508115731 617284166 28378890 28378888#0 28378888#1 28413845 28413844 508115743 508115744 544299032 508115745 31559321 31559320 52286754 52286756#0 52286756#1 31559311 158245363 31559312 959075971 31559315 31559316 498017763 619042922 619042923 28359106 28359104 959075949 28359068 28359059 924390040 959075951 28359016 959075950 28359013 28358963 760399064 28358961 959075964 28358874#0 28358874#1 860646752 959075963 955977944 158245364 768291603 967219595 967219596 27829315 961480477 617284142 961480478 261596720 28357725 28357724 961480485 961480484 28357714 28357715 28357705 28357704 23798288 942089751 617235585 961480529 922483578 124952168 922483579 961480530 33068788 354924841 25657128 8925953 946453068 965564172 261596707 395336999 965564173 395336990 395336979 395336984 33104342 26174374 28432481 28432567 965853345 28432568 965853344 395336991 6240692 28665771 28665770 921643570 965853361 921643571 965853376 119271337 28317586 966059356 947811854 60723578 940408568 966059357 508060359 966059376 517849947 517849945 508060360"/>
    </vehicle>
    <vehicle id="pc1835" type="pc" depart="121.91" departLane="free" departSpeed="max" fromTaz="T1_680_1" toTaz="T1_17_1">
        <route edges="552389449 848429239 848429238 156651843 51383539 51383535 123867451 552389451 617284172 23955194 942219372 942219371 28396117 28396115#0 28396115#1 28588884 28588888 850615424 850615423 28464671 28464668 942228866 508115730 508115731 617284166 28378890 28378888#0 28378888#1 28413845 28413844 508115743 508115744 544299032 508115745 31559321 31559320 52286754 52286756#0 52286756#1 31559311 158245363 31559312 959075971 31559315 31559316 498017763 619042922 619042923 28359106 28359104 959075949 28359068 28359059 924390040 959075951 28359016 959075950 28359013 28358963 760399064 28358961 959075964 28358874#0 28358874#1 860646752 959075963 955977944 158245364 768291603 967219595 967219596 27829315 961480477 617284142 961480478 261596720 28357725 28357724 961480485 961480484 28357714 28357715 28357705 28357704 23798288 942089751 617235585 961480529 922483578 124952168 922483579 961480530 33068788 354924841 25657128 8925953 946453068 965564172 261596707 395336999 965564173 395336990 395336979 395336984 33104342 26174374 28432481 28432567 965853345 28432568 965853344 395336991 6240692 28665771 28665770 921643570 965853361 921643571 965853376 119271337 28317586 966059356 947811854 60723578 940408568 966059357 508060359 966059376 517849947 517849945"/>
    </vehicle>
    <vehicle id="pc944" type="pc" depart="127.28" departLane="free" departSpeed="max" fromTaz="T1_680_1" toTaz="T1_17_1">
        <route edges="93631240 93631330 93631344 8927038#1 552389451 617284172 23955194 942219372 942219371 28396117 28396115#0 28396115#1 28588884 28588888 850615424 850615423 28464671 28464668 942228866 508115730 508115731 617284166 28378890 28378888#0 28378888#1 28413845 28413844 508115743 508115744 544299032 508115745 31559321 31559320 52286754 52286756#0 52286756#1 31559311 158245363 31559312 959075971 31559315 31559316 498017763 619042922 619042923 28359106 28359104 959075949 28359068 28359059 924390040 959075951 28359016 959075950 28359013 28358963 760399064 28358961 959075964 28358874#0 28358874#1 860646752 959075963 955977944 158245364 768291603 967219595 967219596 27829315 961480477 617284142 961480478 261596720 28357725 28357724 961480485 961480484 28357714 28357715 28357705 28357704 23798288 942089751 617235585 961480529 922483578 124952168 922483579 961480530 33068788 354924841 25657128 8925953 946453068 965564172 261596707 395336999 965564173 395336990 395336979 395336984 33104342 26174374 28432481 28432567 965853345 28432568 965853344 395336991 6240692 28665771 28665770 921643570 965853361 921643571 965853376 119271337 28317586 966059356 947811854 60723578 940408568 966059357 966059358 28317882 394110892 1179899628 28317884 394110893#0"/>
    </vehicle>
    <vehicle id="pc1254" type="pc" depart="135.95" departLane="free" departSpeed="max" fromTaz="T1_680_1" toTaz="T1_17_1">
        <route edges="156651843 51383539 51383535 123867451 552389451 617284172 23955194 942219372 942219371 28396117 28396115#0 28396115#1 28588884 28588888 850615424 850615423 28464671 28464668 942228866 508115730 508115731 617284166 28378890 28378888#0 28378888#1 28413845 28413844 508115743 508115744 544299032 508115745 31559321 31559320 52286754 52286756#0 52286756#1 31559311 158245363 31559312 959075971 31559315 31559316 498017763 619042922 619042923 28359106 28359104 959075949 28359068 28359059 924390040 959075951 28359016 959075950 28359013 28358963 760399064 28358961 959075964 28358874#0 28358874#1 860646752 959075963 955977944 158245364 768291603 967219595 967219596 27829315 961480477 617284142 961480478 261596720 28357725 28357724 961480485 961480484 28357714 28357715 28357705 28357704 23798288 942089751 617235585 961480529 922483578 124952168 922483579 961480530 33068788 354924841 25657128 8925953 946453068 965564172 261596707 395336999 965564173 395336990 395336979 395336984 33104342 26174374 28432481 28432567 965853345 28432568 965853344 395336991 6240692 28665771 28665770 921643570 965853361 921643571 965853376 119271337 28317586 966059356 947811854 60723578 940408568 966059357 508060359 966059376 517849947 517849945 508060360 155667053"/>
    </vehicle>
    <vehicle id="pc2485" type="pc" depart="151.13" departLane="free" departSpeed="max" fromTaz="T1_680_1" toTaz="T1_280_1">