<?xml version='1.0' encoding='utf-8'?>
<routes>
  <trip id="959" depart="0.08" from="93631240" to="515733343" type="DEFAULT_VEHTYPE" fromTaz="T1_680_1" toTaz="T1_101_2" departLane="free" departSpeed="max"/>
  <trip id="2959" depart="0.10" from="957460911" to="966059358" type="DEFAULT_VEHTYPE" fromTaz="T1_680_1" toTaz="T1_17_1" departLane="free" departSpeed="max"/>
  <trip id="4965" depart="0.15" from="8926666" to="992584129" type="DEFAULT_VEHTYPE" fromTaz="T1_680_1" toTaz="T1_880_1" departLane="free" departSpeed="max"/>
  <trip id="0" depart="0.16" from="8927038#1" to="394385111" type="DEFAULT_VEHTYPE" fromTaz="T1_680_1" toTaz="T1_101_1" departLane="free" departSpeed="max"/>
  <trip id="960" depart="0.23" from="93631240" to="515733343" type="DEFAULT_VEHTYPE" fromTaz="T1_680_1" toTaz="T1_101_2" departLane="free" departSpeed="max"/>
  <trip id="2960" depart="0.29" from="957460911" to="966059358" type="DEFAULT_VEHTYPE" fromTaz="T1_680_1" toTaz="T1_17_1" departLane="free" departSpeed="max"/>
  <trip id="4512" depart="0.33" from="93631240" to="4786685" type="DEFAULT_VEHTYPE" fromTaz="T1_680_1" toTaz="T1_280_1" departLane="free" departSpeed="max"/>
  <trip id="961" depart="0.38" from="93631240" to="515733343" type="DEFAULT_VEHTYPE" fromTaz="T1_680_1" toTaz="T1_101_2" departLane="free" departSpeed="max"/>
  <trip id="4966" depart="0.45" from="8926666" to="992584129" type="DEFAULT_VEHTYPE" fromTaz="T1_680_1" toTaz="T1_880_1" departLane="free" departSpeed="max"/>
  <trip id="1" depart="0.47" from="8927038#1" to="394385111" type="DEFAULT_VEHTYPE" fromTaz="T1_680_1" toTaz="T1_101_1" departLane="free" departSpeed="max"/>
  <trip id="2961" depart="0.48" from="957460911" to="966059358" type="DEFAULT_VEHTYPE" fromTaz="T1_680_1" toTaz="T1_17_1" departLane="free" departSpeed="max"/>
  <trip id="962" depart="0.53" from="93631240" to="515733343" type="DEFAULT_VEHTYPE" fromTaz="T1_680_1" toTaz="T1_101_2" departLane="free" departSpeed="max"/>
  <trip id="963" depart="0.68" from="93631240" to="515733343" type="DEFAULT_VEHTYPE" fromTaz="T1_680_1" toTaz="T1_101_2" departLane="free" departSpeed="max"/>
  <trip id="2962" depart="0.68" from="957460911" to="966059358" type="DEFAULT_VEHTYPE" fromTaz="T1_680_1" toTaz="T1_17_1" departLane="free" departSpeed="max"/>
  <trip id="4967" depart="0.75" from="8926666" to="992584129" type="DEFAULT_VEHTYPE" fromTaz="T1_680_1" toTaz="T1_880_1" departLane="free" departSpeed="max"/>
  <trip id="2" depart="0.78" from="8927038#1" to="394385111" type="DEFAULT_VEHTYPE" fromTaz="T1_680_1" toTaz="T1_101_1" departLane="free" departSpeed="max"/>
  <trip id="964" depart="0.83" from="93631240" to="515733343" type="DEFAULT_VEHTYPE" fromTaz="T1_680_1" toTaz="T1_101_2" departLane="free" departSpeed="max"/>
  <trip id="2963" depart="0.87" from="957460911" to="966059358" type="DEFAULT_VEHTYPE" fromTaz="T1_680_1" toTaz="T1_17_1" departLane="free" departSpeed="max"/>
  <trip id="965" depart="0.98" from="93631240" to="515733343" type="DEFAULT_VEHTYPE" fromTaz="T1_680_1" toTaz="T1_101_2" departLane="free" departSpeed="max"/>
  <trip id="4513" depart="0.99" from="93631240" to="4786685" type="DEFAULT_VEHTYPE" fromTaz="T1_680_1" toTaz="T1_280_1" departLane="free" departSpeed="max"/>
  <trip id="4968" depart="1.05" from="8926666" to="992584129" type="DEFAULT_VEHTYPE" fromTaz="T1_680_1" toTaz="T1_880_1" departLane="free" departSpeed="max"/>
  <trip id="2964" depart="1.06" from="957460911" to="966059358" type="DEFAULT_VEHTYPE" fromTaz="T1_680_1" toTaz="T1_17_1" departLane="free" departSpeed="max"/>
  <trip id="3" depart="1.09" from="8927038#1" to="394385111" type="DEFAULT_VEHTYPE" fromTaz="T1_680_1" toTaz="T1_101_1" departLane="free" departSpeed="max"/>
  <trip id="966" depart="1.13" from="93631240" to="515733343" type="DEFAULT_VEHTYPE" fromTaz="T1_680_1" toTaz="T1_101_2" departLane="free" departSpeed="max"/>
  <trip id="2965" depart="1.26" from="957460911" to="966059358" type="DEFAULT_VEHTYPE" fromTaz="T1_680_1" toTaz="T1_17_1" departLane="free" departSpeed="max"/>
  <trip id="967" depart="1.28" from="93631240" to="515733343" type="DEFAULT_VEHTYPE" fromTaz="T1_680_1" toTaz="T1_101_2" departLane="free" departSpeed="max"/>
  <trip id="4969" depart="1.35" from="8926666" to="992584129" type="DEFAULT_VEHTYPE" fromTaz="T1_680_1" toTaz="T1_880_1" departLane="free" departSpeed="max"/>
  <trip id="4" depart="1.41" from="8927038#1" to="394385111" type="DEFAULT_VEHTYPE" fromTaz="T1_680_1" toTaz="T1_101_1" departLane="free" departSpeed="max"/>
  <trip id="968" depart="1.43" from="93631240" to="515733343" type="DEFAULT_VEHTYPE" fromTaz="T1_680_1" toTaz="T1_101_2" departLane="free" departSpeed="max"/>
  <trip id="2966" depart="1.45" from="957460911" to="966059358" type="DEFAULT_VEHTYPE" fromTaz="T1_680_1" toTaz="T1_17_1" departLane="free" departSpeed="max"/>
  <trip id="969" depart="1.58" from="93631240" to="515733343" type="DEFAULT_VEHTYPE" fromTaz="T1_680_1" toTaz="T1_101_2" departLane="free" departSpeed="max"/>
  <trip id="2967" depart="1.64" from="957460911" to="966059358" type="DEFAULT_VEHTYPE" fromTaz="T1_680_1" toTaz="T1_17_1" departLane="free" departSpeed="max"/>
  <trip id="4970" depart="1.65" from="8926666" to="992584129" type="DEFAULT_VEHTYPE" fromTaz="T1_680_1" toTaz="T1_880_1" departLane="free" departSpeed="max"/>
  <trip id="4514" depart="1.66" from="93631240" to="4786685" type="DEFAULT_VEHTYPE" fromTaz="T1_680_1" toTaz="T1_280_1" departLane="free" departSpeed="max"/>
  <trip id="5" depart="1.72" from="8927038#1" to="394385111" type="DEFAULT_VEHTYPE" fromTaz="T1_680_1" toTaz="T1_101_1" departLane="free" departSpeed="max"/>
  <trip id="970" depart="1.73" from="93631240" to="515733343" type="DEFAULT_VEHTYPE" fromTaz="T1_680_1" toTaz="T1_101_2" departLane="free" departSpeed="max"/>
  <trip id="2968" depart="1.84" from="957460911" to="966059358" type="DEFAULT_VEHTYPE" fromTaz="T1_680_1" toTaz="T1_17_1" departLane="free" departSpeed="max"/>
  <trip id="971" depart="1.88" from="93631240" to="515733343" type="DEFAULT_VEHTYPE" fromTaz="T1_680_1" toTaz="T1_101_2" departLane="free" departSpeed="max"/>
  <trip id="4971" depart="1.95" from="8926666" to="992584129" type="DEFAULT_VEHTYPE" fromTaz="T1_680_1" toTaz="T1_880_1" departLane="free" departSpeed="max"/>
  <trip id="972" depart="2.03" from="93631240" to="515733343" type="DEFAULT_VEHTYPE" fromTaz="T1_680_1" toTaz="T1_101_2" departLane="free" departSpeed="max"/>
  <trip id="6" depart="2.03" from="8927038#1" to="394385111" type="DEFAULT_VEHTYPE" fromTaz="T1_680_1" toTaz="T1_101_1" departLane="free" departSpeed="max"/>
  <trip id="2969" depart="2.03" from="957460911" to="966059358" type="DEFAULT_VEHTYPE" fromTaz="T1_680_1" toTaz="T1_17_1" departLane="free" departSpeed="max"/>
  <trip id="973" depart="2.18" from="93631240" to="515733343" type="DEFAULT_VEHTYPE" fromTaz="T1_680_1" toTaz="T1_101_2" departLane="free" departSpeed="max"/>
  <trip id="2970" depart="2.22" from="957460911" to="966059358" type="DEFAULT_VEHTYPE" fromTaz="T1_680_1" toTaz="T1_17_1" departLane="free" departSpeed="max"/>
  <trip id="4972" depart="2.25" from="8926666" to="992584129" type="DEFAULT_VEHTYPE" fromTaz="T1_680_1" toTaz="T1_880_1" departLane="free" departSpeed="max"/>
  <trip id="4515" depart="2.32" from="93631240" to="4786685" type="DEFAULT_VEHTYPE" fromTaz="T1_680_1" toTaz="T1_280_1" departLane="free" departSpeed="max"/>
  <trip id="974" depart="2.33" from="93631240" to="515733343" type="DEFAULT_VEHTYPE" fromTaz="T1_680_1" toTaz="T1_101_2" departLane="free" departSpeed="max"/>
  <trip id="7" depart="2.35" from="8927038#1" to="394385111" type="DEFAULT_VEHTYPE" fromTaz="T1_680_1" toTaz="T1_101_1" departLane="free" departSpeed="max"/>
  <trip id="2971" depart="2.41" from="957460911" to="966059358" type="DEFAULT_VEHTYPE" fromTaz="T1_680_1" toTaz="T1_17_1" departLane="free" departSpeed="max"/>
  <trip id="975" depart="2.48" from="93631240" to="515733343" type="DEFAULT_VEHTYPE" fromTaz="T1_680_1" toTaz="T1_101_2" departLane="free" departSpeed="max"/>
  <trip id="4973" depart="2.56" from="8926666" to="992584129" type="DEFAULT_VEHTYPE" fromTaz="T1_680_1" toTaz="T1_880_1" departLane="free" departSpeed="max"/>
  <trip id="2972" depart="2.61" from="957460911" to="966059358" type="DEFAULT_VEHTYPE" fromTaz="T1_680_1" toTaz="T1_17_1" departLane="free" departSpeed="max"/>
  <trip id="976" depart="2.63" from="93631240" to="515733343" type="DEFAULT_VEHTYPE" fromTaz="T1_680_1" toTaz="T1_101_2" departLane="free" departSpeed="max"/>
  <trip id="8" depart="2.66" from="8927038#1" to="394385111" type="DEFAULT_VEHTYPE" fromTaz="T1_680_1" toTaz="T1_101_1" departLane="free" departSpeed="max"/>
  <trip id="977" depart="2.78" from="93631240" to="515733343" type="DEFAULT_VEHTYPE" fromTaz="T1_680_1" toTaz="T1_101_2" departLane="free" departSpeed="max"/>
  <trip id="2973" depart="2.80" from="957460911" to="966059358" type="DEFAULT_VEHTYPE" fromTaz="T1_680_1" toTaz="T1_17_1" departLane="free" departSpeed="max"/>
  <trip id="4974" depart="2.86" from="8926666" to="992584129" type="DEFAULT_VEHTYPE" fromTaz="T1_680_1" toTaz="T1_880_1" departLane="free" departSpeed="max"/>
  <trip id="978" depart="2.93" from="93631240" to="515733343" type="DEFAULT_VEHTYPE" fromTaz="T1_680_1" toTaz="T1_101_2" departLane="free" departSpeed="max"/>
  <trip id="9" depart="2.97" from="8927038#1" to="394385111" type="DEFAULT_VEHTYPE" fromTaz="T1_680_1" toTaz="T1_101_1" departLane="free" departSpeed="max"/>
  <trip id="4516" depart="2.98" from="93631240" to="4786685" type="DEFAULT_VEHTYPE" fromTaz="T1_680_1" toTaz="T1_280_1" departLane="free" departSpeed="max"/>
  <trip id="2974" depart="2.99" from="957460911" to="966059358" type="DEFAULT_VEHTYPE" fromTaz="T1_680_1" toTaz="T1_17_1" departLane="free" departSpeed="max"/>
  <trip id="979" depart="3.08" from="93631240" to="515733343" type="DEFAULT_VEHTYPE" fromTaz="T1_680_1" toTaz="T1_101_2" departLane="free" departSpeed="max"/>
  <trip id="4975" depart="3.16" from="8926666" to="992584129" type="DEFAULT_VEHTYPE" fromTaz="T1_680_1" toTaz="T1_880_1" departLane="free" departSpeed="max"/>
  <trip id="2975" depart="3.19" from="957460911" to="966059358" type="DEFAULT_VEHTYPE" fromTaz="T1_680_1" toTaz="T1_17_1" departLane="free" departSpeed="max"/>
  <trip id="980" depart="3.23" from="93631240" to="515733343" type="DEFAULT_VEHTYPE" fromTaz="T1_680_1" toTaz="T1_101_2" departLane="free" departSpeed="max"/>
  <trip id="10" depart="3.28" from="8927038#1" to="394385111" type="DEFAULT_VEHTYPE" fromTaz="T1_680_1" toTaz="T1_101_1" departLane="free" departSpeed="max"/>
  <trip id="2976" depart="3.38" from="957460911" to="966059358" type="DEFAULT_VEHTYPE" fromTaz="T1_680_1" toTaz="T1_17_1" departLane="free" departSpeed="max"/>
  <trip id="981" depart="3.38" from="93631240" to="515733343" type="DEFAULT_VEHTYPE" fromTaz="T1_680_1" toTaz="T1_101_2" departLane="free" departSpeed="max"/>
  <trip id="4976" depart="3.46" from="8926666" to="992584129" type="DEFAULT_VEHTYPE" fromTaz="T1_680_1" toTaz="T1_880_1" departLane="free" departSpeed="max"/>
  <trip id="982" depart="3.53" from="93631240" to="515733343" type="DEFAULT_VEHTYPE" fromTaz="T1_680_1" toTaz="T1_101_2" departLane="free" departSpeed="max"/>
  <trip id="2977" depart="3.57" from="957460911" to="966059358" type="DEFAULT_VEHTYPE" fromTaz="T1_680_1" toTaz="T1_17_1" departLane="free" departSpeed="max"/>
  <trip id="11" depart="3.60" from="8927038#1" to="394385111" type="DEFAULT_VEHTYPE" fromTaz="T1_680_1" toTaz="T1_101_1" departLane="free" departSpeed="max"/>
  <trip id="4517" depart="3.64" from="93631240" to="4786685" type="DEFAULT_VEHTYPE" fromTaz="T1_680_1" toTaz="T1_280_1" departLane="free" departSpeed="max"/>
  <trip id="983" depart="3.68" from="93631240" to="515733343" type="DEFAULT_VEHTYPE" fromTaz="T1_680_1" toTaz="T1_101_2" departLane="free" departSpeed="max"/>
  <trip id="4977" depart="3.76" from="8926666" to="992584129" type="DEFAULT_VEHTYPE" fromTaz="T1_680_1" toTaz="T1_880_1" departLane="free" departSpeed="max"/>
  <trip id="2978" depart="3.77" from="957460911" to="966059358" type="DEFAULT_VEHTYPE" fromTaz="T1_680_1" toTaz="T1_17_1" departLane="free" departSpeed="max"/>
  <trip id="984" depart="3.83" from="93631240" to="515733343" type="DEFAULT_VEHTYPE" fromTaz="T1_680_1" toTaz="T1_101_2" departLane="free" departSpeed="max"/>
  <trip id="12" depart="3.91" from="8927038#1" to="394385111" type="DEFAULT_VEHTYPE" fromTaz="T1_680_1" toTaz="T1_101_1" departLane="free" departSpeed="max"/>
  <trip id="2979" depart="3.96" from="957460911" to="966059358" type="DEFAULT_VEHTYPE" fromTaz="T1_680_1" toTaz="T1_17_1" departLane="free" departSpeed="max"/>
  <trip id="985" depart="3.98" from="93631240" to="515733343" type="DEFAULT_VEHTYPE" fromTaz="T1_680_1" toTaz="T1_101_2" departLane="free" departSpeed="max"/>
  <trip id="4978" depart="4.06" from="8926666" to="992584129" type="DEFAULT_VEHTYPE" fromTaz="T1_680_1" toTaz="T1_880_1" departLane="free" departSpeed="max"/>
  <trip id="986" depart="4.13" from="93631240" to="515733343" type="DEFAULT_VEHTYPE" fromTaz="T1_680_1" toTaz="T1_101_2" departLane="free" departSpeed="max"/>
  <trip id="2980" depart="4.15" from="957460911" to="966059358" type="DEFAULT_VEHTYPE" fromTaz="T1_680_1" toTaz="T1_17_1" departLane="free" departSpeed="max"/>
  <trip id="13" depart="4.22" from="8927038#1" to="394385111" type="DEFAULT_VEHTYPE" fromTaz="T1_680_1" toTaz="T1_101_1" departLane="free" departSpeed="max"/>
  <trip id="987" depart="4.28" from="93631240" to="515733343" type="DEFAULT_VEHTYPE" fromTaz="T1_680_1" toTaz="T1_101_2" departLane="free" departSpeed="max"/>
  <trip id="4518" depart="4.30" from="93631240" to="4786685" type="DEFAULT_VEHTYPE" fromTaz="T1_680_1" toTaz="T1_280_1" departLane="free" departSpeed="max"/>
  <trip id="2981" depart="4.35" from="957460911" to="966059358" type="DEFAULT_VEHTYPE" fromTaz="T1_680_1" toTaz="T1_17_1" departLane="free" departSpeed="max"/>
  <trip id="4979" depart="4.36" from="8926666" to="992584129" type="DEFAULT_VEHTYPE" fromTaz="T1_680_1" toTaz="T1_880_1" departLane="free" departSpeed="max"/>
  <trip id="988" depart="4.43" from="93631240" to="515733343" type="DEFAULT_VEHTYPE" fromTaz="T1_680_1" toTaz="T1_101_2" departLane="free" departSpeed="max"/>
  <trip id="2982" depart="4.54" from="957460911" to="966059358" type="DEFAULT_VEHTYPE" fromTaz="T1_680_1" toTaz="T1_17_1" departLane="free" departSpeed="max"/>
  <trip id="14" depart="4.54" from="8927038#1" to="394385111" type="DEFAULT_VEHTYPE" fromTaz="T1_680_1" toTaz="T1_101_1" departLane="free" departSpeed="max"/>
  <trip id="989" depart="4.58" from="93631240" to="515733343" type="DEFAULT_VEHTYPE" fromTaz="T1_680_1" toTaz="T1_101_2" departLane="free" departSpeed="max"/>
  <trip id="4980" depart="4.66" from="8926666" to="992584129" type="DEFAULT_VEHTYPE" fromTaz="T1_680_1" toTaz="T1_880_1" departLane="free" departSpeed="max"/>
  <trip id="2983" depart="4.73" from="957460911" to="966059358" type="DEFAULT_VEHTYPE" fromTaz="T1_680_1" toTaz="T1_17_1" departLane="free" departSpeed="max"/>
  <trip id="990" depart="4.73" from="93631240" to="515733343" type="DEFAULT_VEHTYPE" fromTaz="T1_680_1" toTaz="T1_101_2" departLane="free" departSpeed="max"/>
  <trip id="15" depart="4.85" from="8927038#1" to="394385111" type="DEFAULT_VEHTYPE" fromTaz="T1_680_1" toTaz="T1_101_1" departLane="free" departSpeed="max"/>
  <trip id="991" depart="4.88" from="93631240" to="515733343" type="DEFAULT_VEHTYPE" fromTaz="T1_680_1" toTaz="T1_101_2" departLane="free" departSpeed="max"/>
  <trip id="2984" depart="4.93" from="957460911" to="966059358" type="DEFAULT_VEHTYPE" fromTaz="T1_680_1" toTaz="T1_17_1" departLane="free" departSpeed="max"/>
  <trip id="4981" depart="4.96" from="8926666" to="992584129" type="DEFAULT_VEHTYPE" fromTaz="T1_680_1" toTaz="T1_880_1" departLane="free" departSpeed="max"/>
  <trip id="4519" depart="4.97" from="93631240" to="4786685" type="DEFAULT_VEHTYPE" fromTaz="T1_680_1" toTaz="T1_280_1" departLane="free" departSpeed="max"/>
  <trip id="992" depart="5.03" from="93631240" to="515733343" type="DEFAULT_VEHTYPE" fromTaz="T1_680_1" toTaz="T1_101_2" departLane="free" departSpeed="max"/>
  <trip id="2985" depart="5.12" from="957460911" to="966059358" type="DEFAULT_VEHTYPE" fromTaz="T1_680_1" toTaz="T1_17_1" departLane="free" departSpeed="max"/>
  <trip id="16" depart="5.16" from="8927038#1" to="394385111" type="DEFAULT_VEHTYPE" fromTaz="T1_680_1" toTaz="T1_101_1" departLane="free" departSpeed="max"/>
  <trip id="993" depart="5.18" from="93631240" to="515733343" type="DEFAULT_VEHTYPE" fromTaz="T1_680_1" toTaz="T1_101_2" departLane="free" departSpeed="max"/>
  <trip id="4982" depart="5.26" from="8926666" to="992584129" type="DEFAULT_VEHTYPE" fromTaz="T1_680_1" toTaz="T1_880_1" departLane="free" departSpeed="max"/>
  <trip id="2986" depart="5.31" from="957460911" to="966059358" type="DEFAULT_VEHTYPE" fromTaz="T1_680_1" toTaz="T1_17_1" departLane="free" departSpeed="max"/>
  <trip id="994" depart="5.33" from="93631240" to="515733343" type="DEFAULT_VEHTYPE" fromTaz="T1_680_1" toTaz="T1_101_2" departLane="free" departSpeed="max"/>
  <trip id="17" depart="5.47" from="8927038#1" to="394385111" type="DEFAULT_VEHTYPE" fromTaz="T1_680_1" toTaz="T1_101_1" departLane="free" departSpeed="max"/>
  <trip id="995" depart="5.48" from="93631240" to="515733343" type="DEFAULT_VEHTYPE" fromTaz="T1_680_1" toTaz="T1_101_2" departLane="free" departSpeed="max"/>
  <trip id="2987" depart="5.51" from="957460911" to="966059358" type="DEFAULT_VEHTYPE" fromTaz="T1_680_1" toTaz="T1_17_1" departLane="free" departSpeed="max"/>
  <trip id="4983" depart="5.56" from="8926666" to="992584129" type="DEFAULT_VEHTYPE" fromTaz="T1_680_1" toTaz="T1_880_1" departLane="free" departSpeed="max"/>
  <trip id="996" depart="5.63" from="93631240" to="515733343" type="DEFAULT_VEHTYPE" fromTaz="T1_680_1" toTaz="T1_101_2" departLane="free" departSpeed="max"/>
  <trip id="4520" depart="5.63" from="93631240" to="4786685" type="DEFAULT_VEHTYPE" fromTaz="T1_680_1" toTaz="T1_280_1" departLane="free" departSpeed="max"/>
  <trip id="2988" depart="5.70" from="957460911" to="966059358" type="DEFAULT_VEHTYPE" fromTaz="T1_680_1" toTaz="T1_17_1" departLane="free" departSpeed="max"/>
  <trip id="997" depart="5.78" from="93631240" to="515733343" type="DEFAULT_VEHTYPE" fromTaz="T1_680_1" toTaz="T1_101_2" departLane="free" departSpeed="max"/>
  <trip id="18" depart="5.79" from="8927038#1" to="394385111" type="DEFAULT_VEHTYPE" fromTaz="T1_680_1" toTaz="T1_101_1" departLane="free" departSpeed="max"/>
  <trip id="4984" depart="5.86" from="8926666" to="992584129" type="DEFAULT_VEHTYPE" fromTaz="T1_680_1" toTaz="T1_880_1" departLane="free" departSpeed="max"/>
  <trip id="2989" depart="5.89" from="957460911" to="966059358" type="DEFAULT_VEHTYPE" fromTaz="T1_680_1" toTaz="T1_17_1" departLane="free" departSpeed="max"/>
  <trip id="998" depart="5.93" from="93631240" to="515733343" type="DEFAULT_VEHTYPE" fromTaz="T1_680_1" toTaz="T1_101_2" departLane="free" departSpeed="max"/>
  <trip id="999" depart="6.08" from="93631240" to="515733343" type="DEFAULT_VEHTYPE" fromTaz="T1_680_1" toTaz="T1_101_2" departLane="free" departSpeed="max"/>
  <trip id="2990" depart="6.08" from="957460911" to="966059358" type="DEFAULT_VEHTYPE" fromTaz="T1_680_1" toTaz="T1_17_1" departLane="free" departSpeed="max"/>
  <trip id="19" depart="6.10" from="8927038#1" to="394385111" type="DEFAULT_VEHTYPE" fromTaz="T1_680_1" toTaz="T1_101_1" departLane="free" departSpeed="max"/>
  <trip id="4985" depart="6.16" from="8926666" to="992584129" type="DEFAULT_VEHTYPE" fromTaz="T1_680_1" toTaz="T1_880_1" departLane="free" departSpeed="max"/>
  <trip id="1000" depart="6.23" from="93631240" to="515733343" type="DEFAULT_VEHTYPE" fromTaz="T1_680_1" toTaz="T1_101_2" departLane="free" departSpeed="max"/>
  <trip id="2991" depart="6.28" from="957460911" to="966059358" type="DEFAULT_VEHTYPE" fromTaz="T1_680_1" toTaz="T1_17_1" departLane="free" departSpeed="max"/>
  <trip id="4521" depart="6.29" from="93631240" to="4786685" type="DEFAULT_VEHTYPE" fromTaz="T1_680_1" toTaz="T1_280_1" departLane="free" departSpeed="max"/>
  <trip id="1001" depart="6.38" from="93631240" to="515733343" type="DEFAULT_VEHTYPE" fromTaz="T1_680_1" toTaz="T1_101_2" departLane="free" departSpeed="max"/>
  <trip id="20" depart="6.41" from="8927038#1" to="394385111" type="DEFAULT_VEHTYPE" fromTaz="T1_680_1" toTaz="T1_101_1" departLane="free" departSpeed="max"/>
  <trip id="4986" depart="6.46" from="8926666" to="992584129" type="DEFAULT_VEHTYPE" fromTaz="T1_680_1" toTaz="T1_880_1" departLane="free" departSpeed="max"/>
  <trip id="2992" depart="6.47" from="957460911" to="966059358" type="DEFAULT_VEHTYPE" fromTaz="T1_680_1" toTaz="T1_17_1" departLane="free" departSpeed="max"/>
  <trip id="1002" depart="6.53" from="93631240" to="515733343" type="DEFAULT_VEHTYPE" fromTaz="T1_680_1" toTaz="T1_101_2" departLane="free" departSpeed="max"/>
  <trip id="2993" depart="6.66" from="957460911" to="966059358" type="DEFAULT_VEHTYPE" fromTaz="T1_680_1" toTaz="T1_17_1" departLane="free" departSpeed="max"/>
  <trip id="1003" depart="6.68" from="93631240" to="515733343" type="DEFAULT_VEHTYPE" fromTaz="T1_680_1" toTaz="T1_101_2" departLane="free" departSpeed="max"/>
  <trip id="21" depart="6.73" from="8927038#1" to="394385111" type="DEFAULT_VEHTYPE" fromTaz="T1_680_1" toTaz="T1_101_1" departLane="free" departSpeed="max"/>
  <trip id="4987" depart="6.76" from="8926666" to="992584129" type="DEFAULT_VEHTYPE" fromTaz="T1_680_1" toTaz="T1_880_1" departLane="free" departSpeed="max"/>
  <trip id="1004" depart="6.83" from="93631240" to="515733343" type="DEFAULT_VEHTYPE" fromTaz="T1_680_1" toTaz="T1_101_2" departLane="free" departSpeed="max"/>
  <trip id="2994" depart="6.86" from="957460911" to="966059358" type="DEFAULT_VEHTYPE" fromTaz="T1_680_1" toTaz="T1_17_1" departLane="free" departSpeed="max"/>
  <trip id="4522" depart="6.95" from="93631240" to="4786685" type="DEFAULT_VEHTYPE" fromTaz="T1_680_1" toTaz="T1_280_1" departLane="free" departSpeed="max"/>
  <trip id="1005" depart="6.98" from="93631240" to="515733343" type="DEFAULT_VEHTYPE" fromTaz="T1_680_1" toTaz="T1_101_2" departLane="free" departSpeed="max"/>
  <trip id="22" depart="7.04" from="8927038#1" to="394385111" type="DEFAULT_VEHTYPE" fromTaz="T1_680_1" toTaz="T1_101_1" departLane="free" departSpeed="max"/>
  <trip id="2995" depart="7.05" from="957460911" to="966059358" type="DEFAULT_VEHTYPE" fromTaz="T1_680_1" toTaz="T1_17_1" departLane="free" departSpeed="max"/>
  <trip id="4988" depart="7.06" from="8926666" to="992584129" type="DEFAULT_VEHTYPE" fromTaz="T1_680_1" toTaz="T1_880_1" departLane="free" departSpeed="max"/>
  <trip id="1006" depart="7.13" from="93631240" to="515733343" type="DEFAULT_VEHTYPE" fromTaz="T1_680_1" toTaz="T1_101_2" departLane="free" departSpeed="max"/>
  <trip id="2996" depart="7.24" from="957460911" to="966059358" type="DEFAULT_VEHTYPE" fromTaz="T1_680_1" toTaz="T1_17_1" departLane="free" departSpeed="max"/>
  <trip id="1007" depart="7.28" from="93631240" to="515733343" type="DEFAULT_VEHTYPE" fromTaz="T1_680_1" toTaz="T1_101_2" departLane="free" departSpeed="max"/>
  <trip id="23" depart="7.35" from="8927038#1" to="394385111" type="DEFAULT_VEHTYPE" fromTaz="T1_680_1" toTaz="T1_101_1" departLane="free" departSpeed="max"/>
  <trip id="4989" depart="7.36" from="8926666" to="992584129" type="DEFAULT_VEHTYPE" fromTaz="T1_680_1" toTaz="T1_880_1" departLane="free" departSpeed="max"/>
  <trip id="1008" depart="7.43" from="93631240" to="515733343" type="DEFAULT_VEHTYPE" fromTaz="T1_680_1" toTaz="T1_101_2" departLane="free" departSpeed="max"/>
  <trip id="2997" depart="7.44" from="957460911" to="966059358" type="DEFAULT_VEHTYPE" fromTaz="T1_680_1" toTaz="T1_17_1" departLane="free" departSpeed="max"/>
  <trip id="1009" depart="7.58" from="93631240" to="515733343" type="DEFAULT_VEHTYPE" fromTaz="T1_680_1" toTaz="T1_101_2" departLane="free" departSpeed="max"/>
  <trip id="4523" depart="7.62" from="93631240" to="4786685" type="DEFAULT_VEHTYPE" fromTaz="T1_680_1" toTaz="T1_280_1" departLane="free" departSpeed="max"/>
  <trip id="2998" depart="7.63" from="957460911" to="966059358" type="DEFAULT_VEHTYPE" fromTaz="T1_680_1" toTaz="T1_17_1" departLane="free" departSpeed="max"/>
  <trip id="24" depart="7.66" from="8927038#1" to="394385111" type="DEFAULT_VEHTYPE" fromTaz="T1_680_1" toTaz="T1_101_1" departLane="free" departSpeed="max"/>
  <trip id="4990" depart="7.67" from="8926666" to="992584129" type="DEFAULT_VEHTYPE" fromTaz="T1_680_1" toTaz="T1_880_1" departLane="free" departSpeed="max"/>
  <trip id="1010" depart="7.73" from="93631240" to="515733343" type="DEFAULT_VEHTYPE" fromTaz="T1_680_1" toTaz="T1_101_2" departLane="free" departSpeed="max"/>
  <trip id="2999" depart="7.82" from="957460911" to="966059358" type="DEFAULT_VEHTYPE" fromTaz="T1_680_1" toTaz="T1_17_1" departLane="free" departSpeed="max"/>
  <trip id="1011" depart="7.88" from="93631240" to="515733343" type="DEFAULT_VEHTYPE" fromTaz="T1_680_1" toTaz="T1_101_2" departLane="free" departSpeed="max"/>
  <trip id="4991" depart="7.97" from="8926666" to="992584129" type="DEFAULT_VEHTYPE" fromTaz="T1_680_1" toTaz="T1_880_1" departLane="free" departSpeed="max"/>
  <trip id="25" depart="7.98" from="8927038#1" to="394385111" type="DEFAULT_VEHTYPE" fromTaz="T1_680_1" toTaz="T1_101_1" departLane="free" departSpeed="max"/>
  <trip id="3000" depart="8.02" from="957460911" to="966059358" type="DEFAULT_VEHTYPE" fromTaz="T1_680_1" toTaz="T1_17_1" departLane="free" departSpeed="max"/>
  <trip id="1012" depart="8.03" from="93631240" to="515733343" type="DEFAULT_VEHTYPE" fromTaz="T1_680_1" toTaz="T1_101_2" departLane="free" departSpeed="max"/>
  <trip id="1013" depart="8.18" from="93631240" to="515733343" type="DEFAULT_VEHTYPE" fromTaz="T1_680_1" toTaz="T1_101_2" departLane="free" departSpeed="max"/>
  <trip id="3001" depart="8.21" from="957460911" to="966059358" type="DEFAULT_VEHTYPE" fromTaz="T1_680_1" toTaz="T1_17_1" departLane="free" departSpeed="max"/>
  <trip id="4992" depart="8.27" from="8926666" to="992584129" type="DEFAULT_VEHTYPE" fromTaz="T1_680_1" toTaz="T1_880_1" departLane="free" departSpeed="max"/>
  <trip id="4524" depart="8.28" from="93631240" to="4786685" type="DEFAULT_VEHTYPE" fromTaz="T1_680_1" toTaz="T1_280_1" departLane="free" departSpeed="max"/>
  <trip id="26" depart="8.29" from="8927038#1" to="394385111" type="DEFAULT_VEHTYPE" fromTaz="T1_680_1" toTaz="T1_101_1" departLane="free" departSpeed="max"/>
  <trip id="1014" depart="8.33" from="93631240" to="515733343" type="DEFAULT_VEHTYPE" fromTaz="T1_680_1" toTaz="T1_101_2" departLane="free" departSpeed="max"/>
  <trip id="3002" depart="8.40" from="957460911" to="966059358" type="DEFAULT_VEHTYPE" fromTaz="T1_680_1" toTaz="T1_17_1" departLane="free" departSpeed="max"/>
  <trip id="1015" depart="8.48" from="93631240" to="515733343" type="DEFAULT_VEHTYPE" fromTaz="T1_680_1" toTaz="T1_101_2" departLane="free" departSpeed="max"/>
  <trip id="4993" depart="8.57" from="8926666" to="992584129" type="DEFAULT_VEHTYPE" fromTaz="T1_680_1" toTaz="T1_880_1" departLane="free" departSpeed="max"/>
  <trip id="3003" depart="8.60" from="957460911" to="966059358" type="DEFAULT_VEHTYPE" fromTaz="T1_680_1" toTaz="T1_17_1" departLane="free" departSpeed="max"/>
  <trip id="27" depart="8.60" from="8927038#1" to="394385111" type="DEFAULT_VEHTYPE" fromTaz="T1_680_1" toTaz="T1_101_1" departLane="free" departSpeed="max"/>
  <trip id="1016" depart="8.63" from="93631240" to="515733343" type="DEFAULT_VEHTYPE" fromTaz="T1_680_1" toTaz="T1_101_2" departLane="free" departSpeed="max"/>
  <trip id="1017" depart="8.78" from="93631240" to="515733343" type="DEFAULT_VEHTYPE" fromTaz="T1_680_1" toTaz="T1_101_2" departLane="free" departSpeed="max"/>
  <trip id="3004" depart="8.79" from="957460911" to="966059358" type="DEFAULT_VEHTYPE" fromTaz="T1_680_1" toTaz="T1_17_1" departLane="free" departSpeed="max"/>
  <trip id="4994" depart="8.87" from="8926666" to="992584129" type="DEFAULT_VEHTYPE" fromTaz="T1_680_1" toTaz="T1_880_1" departLane="free" departSpeed="max"/>
  <trip id="28" depart="8.92" from="8927038#1" to="394385111" type="DEFAULT_VEHTYPE" fromTaz="T1_680_1" toTaz="T1_101_1" departLane="free" departSpeed="max"/>
  <trip id="1018" depart="8.93" from="93631240" to="515733343" type="DEFAULT_VEHTYPE" fromTaz="T1_680_1" toTaz="T1_101_2" departLane="free" departSpeed="max"/>
  <trip id="4525" depart="8.94" from="93631240" to="4786685" type="DEFAULT_VEHTYPE" fromTaz="T1_680_1" toTaz="T1_280_1" departLane="free" departSpeed="max"/>
  <trip id="3005" depart="8.98" from="957460911" to="966059358" type="DEFAULT_VEHTYPE" fromTaz="T1_680_1" toTaz="T1_17_1" departLane="free" departSpeed="max"/>
  <trip id="1019" depart="9.08" from="93631240" to="515733343" type="DEFAULT_VEHTYPE" fromTaz="T1_680_1" toTaz="T1_101_2" departLane="free" departSpeed="max"/>
  <trip id="4995" depart="9.17" from="8926666" to="992584129" type="DEFAULT_VEHTYPE" fromTaz="T1_680_1" toTaz="T1_880_1" departLane="free" departSpeed="max"/>
  <trip id="3006" depart="9.18" from="957460911" to="966059358" type="DEFAULT_VEHTYPE" fromTaz="T1_680_1" toTaz="T1_17_1" departLane="free" departSpeed="max"/>
  <trip id="29" depart="9.23" from="8927038#1" to="394385111" type="DEFAULT_VEHTYPE" fromTaz="T1_680_1" toTaz="T1_101_1" departLane="free" departSpeed="max"/>
  <trip id="1020" depart="9.23" from="93631240" to="515733343" type="DEFAULT_VEHTYPE" fromTaz="T1_680_1" toTaz="T1_101_2" departLane="free" departSpeed="max"/>
  <trip id="3007" depart="9.37" from="957460911" to="966059358" type="DEFAULT_VEHTYPE" fromTaz="T1_680_1" toTaz="T1_17_1" departLane="free" departSpeed="max"/>
  <trip id="1021" depart="9.38" from="93631240" to="515733343" type="DEFAULT_VEHTYPE" fromTaz="T1_680_1" toTaz="T1_101_2" departLane="free" departSpeed="max"/>
  <trip id="4996" depart="9.47" from="8926666" to="992584129" type="DEFAULT_VEHTYPE" fromTaz="T1_680_1" toTaz="T1_880_1" departLane="free" departSpeed="max"/>