<?xml version='1.0' encoding='utf-8'?>
<routes>
  <trip id="2492" depart="0.09" from="957460911" to="966059358" type="DEFAULT_VEHTYPE" fromTaz="T1_680_1" toTaz="T1_17_1" departLane="free" departSpeed="max"/>
  <trip id="978" depart="0.10" from="93631240" to="515733343" type="DEFAULT_VEHTYPE" fromTaz="T1_680_1" toTaz="T1_101_2" departLane="free" departSpeed="max"/>
  <trip id="4538" depart="0.11" from="8926666" to="992584129" type="DEFAULT_VEHTYPE" fromTaz="T1_680_1" toTaz="T1_880_1" departLane="free" departSpeed="max"/>
  <trip id="0" depart="0.15" from="8927038#1" to="394385111" type="DEFAULT_VEHTYPE" fromTaz="T1_680_1" toTaz="T1_101_1" departLane="free" departSpeed="max"/>
  <trip id="2493" depart="0.28" from="957460911" to="966059358" type="DEFAULT_VEHTYPE" fromTaz="T1_680_1" toTaz="T1_17_1" departLane="free" departSpeed="max"/>
  <trip id="979" depart="0.30" from="93631240" to="515733343" type="DEFAULT_VEHTYPE" fromTaz="T1_680_1" toTaz="T1_101_2" departLane="free" departSpeed="max"/>
  <trip id="4539" depart="0.34" from="8926666" to="992584129" type="DEFAULT_VEHTYPE" fromTaz="T1_680_1" toTaz="T1_880_1" departLane="free" departSpeed="max"/>
  <trip id="4099" depart="0.34" from="93631240" to="4786685" type="DEFAULT_VEHTYPE" fromTaz="T1_680_1" toTaz="T1_280_1" departLane="free" departSpeed="max"/>
  <trip id="1" depart="0.46" from="8927038#1" to="394385111" type="DEFAULT_VEHTYPE" fromTaz="T1_680_1" toTaz="T1_101_1" departLane="free" departSpeed="max"/>
  <trip id="2494" depart="0.47" from="957460911" to="966059358" type="DEFAULT_VEHTYPE" fromTaz="T1_680_1" toTaz="T1_17_1" departLane="free" departSpeed="max"/>
  <trip id="980" depart="0.50" from="93631240" to="515733343" type="DEFAULT_VEHTYPE" fromTaz="T1_680_1" toTaz="T1_101_2" departLane="free" departSpeed="max"/>
  <trip id="4540" depart="0.57" from="8926666" to="992584129" type="DEFAULT_VEHTYPE" fromTaz="T1_680_1" toTaz="T1_880_1" departLane="free" departSpeed="max"/>
  <trip id="2495" depart="0.65" from="957460911" to="966059358" type="DEFAULT_VEHTYPE" fromTaz="T1_680_1" toTaz="T1_17_1" departLane="free" departSpeed="max"/>
  <trip id="981" depart="0.69" from="93631240" to="515733343" type="DEFAULT_VEHTYPE" fromTaz="T1_680_1" toTaz="T1_101_2" departLane="free" departSpeed="max"/>
  <trip id="2" depart="0.77" from="8927038#1" to="394385111" type="DEFAULT_VEHTYPE" fromTaz="T1_680_1" toTaz="T1_101_1" departLane="free" departSpeed="max"/>
  <trip id="4541" depart="0.79" from="8926666" to="992584129" type="DEFAULT_VEHTYPE" fromTaz="T1_680_1" toTaz="T1_880_1" departLane="free" departSpeed="max"/>
  <trip id="2496" depart="0.84" from="957460911" to="966059358" type="DEFAULT_VEHTYPE" fromTaz="T1_680_1" toTaz="T1_17_1" departLane="free" departSpeed="max"/>
  <trip id="982" depart="0.89" from="93631240" to="515733343" type="DEFAULT_VEHTYPE" fromTaz="T1_680_1" toTaz="T1_101_2" departLane="free" departSpeed="max"/>
  <trip id="4542" depart="1.02" from="8926666" to="992584129" type="DEFAULT_VEHTYPE" fromTaz="T1_680_1" toTaz="T1_880_1" departLane="free" departSpeed="max"/>
  <trip id="4100" depart="1.03" from="93631240" to="4786685" type="DEFAULT_VEHTYPE" fromTaz="T1_680_1" toTaz="T1_280_1" departLane="free" departSpeed="max"/>
  <trip id="2497" depart="1.03" from="957460911" to="966059358" type="DEFAULT_VEHTYPE" fromTaz="T1_680_1" toTaz="T1_17_1" departLane="free" departSpeed="max"/>
  <trip id="3" depart="1.07" from="8927038#1" to="394385111" type="DEFAULT_VEHTYPE" fromTaz="T1_680_1" toTaz="T1_101_1" departLane="free" departSpeed="max"/>
  <trip id="983" depart="1.09" from="93631240" to="515733343" type="DEFAULT_VEHTYPE" fromTaz="T1_680_1" toTaz="T1_101_2" departLane="free" departSpeed="max"/>
  <trip id="2498" depart="1.21" from="957460911" to="966059358" type="DEFAULT_VEHTYPE" fromTaz="T1_680_1" toTaz="T1_17_1" departLane="free" departSpeed="max"/>
  <trip id="4543" depart="1.25" from="8926666" to="992584129" type="DEFAULT_VEHTYPE" fromTaz="T1_680_1" toTaz="T1_880_1" departLane="free" departSpeed="max"/>
  <trip id="984" depart="1.29" from="93631240" to="515733343" type="DEFAULT_VEHTYPE" fromTaz="T1_680_1" toTaz="T1_101_2" departLane="free" departSpeed="max"/>
  <trip id="4" depart="1.38" from="8927038#1" to="394385111" type="DEFAULT_VEHTYPE" fromTaz="T1_680_1" toTaz="T1_101_1" departLane="free" departSpeed="max"/>
  <trip id="2499" depart="1.40" from="957460911" to="966059358" type="DEFAULT_VEHTYPE" fromTaz="T1_680_1" toTaz="T1_17_1" departLane="free" departSpeed="max"/>
  <trip id="4544" depart="1.47" from="8926666" to="992584129" type="DEFAULT_VEHTYPE" fromTaz="T1_680_1" toTaz="T1_880_1" departLane="free" departSpeed="max"/>
  <trip id="985" depart="1.49" from="93631240" to="515733343" type="DEFAULT_VEHTYPE" fromTaz="T1_680_1" toTaz="T1_101_2" departLane="free" departSpeed="max"/>
  <trip id="2500" depart="1.59" from="957460911" to="966059358" type="DEFAULT_VEHTYPE" fromTaz="T1_680_1" toTaz="T1_17_1" departLane="free" departSpeed="max"/>
  <trip id="986" depart="1.68" from="93631240" to="515733343" type="DEFAULT_VEHTYPE" fromTaz="T1_680_1" toTaz="T1_101_2" departLane="free" departSpeed="max"/>
  <trip id="5" depart="1.69" from="8927038#1" to="394385111" type="DEFAULT_VEHTYPE" fromTaz="T1_680_1" toTaz="T1_101_1" departLane="free" departSpeed="max"/>
  <trip id="4545" depart="1.70" from="8926666" to="992584129" type="DEFAULT_VEHTYPE" fromTaz="T1_680_1" toTaz="T1_880_1" departLane="free" departSpeed="max"/>
  <trip id="4101" depart="1.71" from="93631240" to="4786685" type="DEFAULT_VEHTYPE" fromTaz="T1_680_1" toTaz="T1_280_1" departLane="free" departSpeed="max"/>
  <trip id="2501" depart="1.77" from="957460911" to="966059358" type="DEFAULT_VEHTYPE" fromTaz="T1_680_1" toTaz="T1_17_1" departLane="free" departSpeed="max"/>
  <trip id="987" depart="1.88" from="93631240" to="515733343" type="DEFAULT_VEHTYPE" fromTaz="T1_680_1" toTaz="T1_101_2" departLane="free" departSpeed="max"/>
  <trip id="4546" depart="1.93" from="8926666" to="992584129" type="DEFAULT_VEHTYPE" fromTaz="T1_680_1" toTaz="T1_880_1" departLane="free" departSpeed="max"/>
  <trip id="2502" depart="1.96" from="957460911" to="966059358" type="DEFAULT_VEHTYPE" fromTaz="T1_680_1" toTaz="T1_17_1" departLane="free" departSpeed="max"/>
  <trip id="6" depart="1.99" from="8927038#1" to="394385111" type="DEFAULT_VEHTYPE" fromTaz="T1_680_1" toTaz="T1_101_1" departLane="free" departSpeed="max"/>
  <trip id="988" depart="2.08" from="93631240" to="515733343" type="DEFAULT_VEHTYPE" fromTaz="T1_680_1" toTaz="T1_101_2" departLane="free" departSpeed="max"/>
  <trip id="4547" depart="2.15" from="8926666" to="992584129" type="DEFAULT_VEHTYPE" fromTaz="T1_680_1" toTaz="T1_880_1" departLane="free" departSpeed="max"/>
  <trip id="2503" depart="2.15" from="957460911" to="966059358" type="DEFAULT_VEHTYPE" fromTaz="T1_680_1" toTaz="T1_17_1" departLane="free" departSpeed="max"/>
  <trip id="989" depart="2.28" from="93631240" to="515733343" type="DEFAULT_VEHTYPE" fromTaz="T1_680_1" toTaz="T1_101_2" departLane="free" departSpeed="max"/>
  <trip id="7" depart="2.30" from="8927038#1" to="394385111" type="DEFAULT_VEHTYPE" fromTaz="T1_680_1" toTaz="T1_101_1" departLane="free" departSpeed="max"/>
  <trip id="2504" depart="2.33" from="957460911" to="966059358" type="DEFAULT_VEHTYPE" fromTaz="T1_680_1" toTaz="T1_17_1" departLane="free" departSpeed="max"/>
  <trip id="4548" depart="2.38" from="8926666" to="992584129" type="DEFAULT_VEHTYPE" fromTaz="T1_680_1" toTaz="T1_880_1" departLane="free" departSpeed="max"/>
  <trip id="4102" depart="2.39" from="93631240" to="4786685" type="DEFAULT_VEHTYPE" fromTaz="T1_680_1" toTaz="T1_280_1" departLane="free" departSpeed="max"/>
  <trip id="990" depart="2.48" from="93631240" to="515733343" type="DEFAULT_VEHTYPE" fromTaz="T1_680_1" toTaz="T1_101_2" departLane="free" departSpeed="max"/>
  <trip id="2505" depart="2.52" from="957460911" to="966059358" type="DEFAULT_VEHTYPE" fromTaz="T1_680_1" toTaz="T1_17_1" departLane="free" departSpeed="max"/>
  <trip id="4549" depart="2.61" from="8926666" to="992584129" type="DEFAULT_VEHTYPE" fromTaz="T1_680_1" toTaz="T1_880_1" departLane="free" departSpeed="max"/>
  <trip id="8" depart="2.61" from="8927038#1" to="394385111" type="DEFAULT_VEHTYPE" fromTaz="T1_680_1" toTaz="T1_101_1" departLane="free" departSpeed="max"/>
  <trip id="991" depart="2.68" from="93631240" to="515733343" type="DEFAULT_VEHTYPE" fromTaz="T1_680_1" toTaz="T1_101_2" departLane="free" departSpeed="max"/>
  <trip id="2506" depart="2.71" from="957460911" to="966059358" type="DEFAULT_VEHTYPE" fromTaz="T1_680_1" toTaz="T1_17_1" departLane="free" departSpeed="max"/>
  <trip id="4550" depart="2.83" from="8926666" to="992584129" type="DEFAULT_VEHTYPE" fromTaz="T1_680_1" toTaz="T1_880_1" departLane="free" departSpeed="max"/>
  <trip id="992" depart="2.87" from="93631240" to="515733343" type="DEFAULT_VEHTYPE" fromTaz="T1_680_1" toTaz="T1_101_2" departLane="free" departSpeed="max"/>
  <trip id="2507" depart="2.89" from="957460911" to="966059358" type="DEFAULT_VEHTYPE" fromTaz="T1_680_1" toTaz="T1_17_1" departLane="free" departSpeed="max"/>
  <trip id="9" depart="2.91" from="8927038#1" to="394385111" type="DEFAULT_VEHTYPE" fromTaz="T1_680_1" toTaz="T1_101_1" departLane="free" departSpeed="max"/>
  <trip id="4551" depart="3.06" from="8926666" to="992584129" type="DEFAULT_VEHTYPE" fromTaz="T1_680_1" toTaz="T1_880_1" departLane="free" departSpeed="max"/>
  <trip id="993" depart="3.07" from="93631240" to="515733343" type="DEFAULT_VEHTYPE" fromTaz="T1_680_1" toTaz="T1_101_2" departLane="free" departSpeed="max"/>
  <trip id="4103" depart="3.08" from="93631240" to="4786685" type="DEFAULT_VEHTYPE" fromTaz="T1_680_1" toTaz="T1_280_1" departLane="free" departSpeed="max"/>
  <trip id="2508" depart="3.08" from="957460911" to="966059358" type="DEFAULT_VEHTYPE" fromTaz="T1_680_1" toTaz="T1_17_1" departLane="free" departSpeed="max"/>
  <trip id="10" depart="3.22" from="8927038#1" to="394385111" type="DEFAULT_VEHTYPE" fromTaz="T1_680_1" toTaz="T1_101_1" departLane="free" departSpeed="max"/>
  <trip id="994" depart="3.27" from="93631240" to="515733343" type="DEFAULT_VEHTYPE" fromTaz="T1_680_1" toTaz="T1_101_2" departLane="free" departSpeed="max"/>
  <trip id="2509" depart="3.27" from="957460911" to="966059358" type="DEFAULT_VEHTYPE" fromTaz="T1_680_1" toTaz="T1_17_1" departLane="free" departSpeed="max"/>
  <trip id="4552" depart="3.29" from="8926666" to="992584129" type="DEFAULT_VEHTYPE" fromTaz="T1_680_1" toTaz="T1_880_1" departLane="free" departSpeed="max"/>
  <trip id="2510" depart="3.45" from="957460911" to="966059358" type="DEFAULT_VEHTYPE" fromTaz="T1_680_1" toTaz="T1_17_1" departLane="free" departSpeed="max"/>
  <trip id="995" depart="3.47" from="93631240" to="515733343" type="DEFAULT_VEHTYPE" fromTaz="T1_680_1" toTaz="T1_101_2" departLane="free" departSpeed="max"/>
  <trip id="4553" depart="3.51" from="8926666" to="992584129" type="DEFAULT_VEHTYPE" fromTaz="T1_680_1" toTaz="T1_880_1" departLane="free" departSpeed="max"/>
  <trip id="11" depart="3.53" from="8927038#1" to="394385111" type="DEFAULT_VEHTYPE" fromTaz="T1_680_1" toTaz="T1_101_1" departLane="free" departSpeed="max"/>
  <trip id="2511" depart="3.64" from="957460911" to="966059358" type="DEFAULT_VEHTYPE" fromTaz="T1_680_1" toTaz="T1_17_1" departLane="free" departSpeed="max"/>
  <trip id="996" depart="3.67" from="93631240" to="515733343" type="DEFAULT_VEHTYPE" fromTaz="T1_680_1" toTaz="T1_101_2" departLane="free" departSpeed="max"/>
  <trip id="4554" depart="3.74" from="8926666" to="992584129" type="DEFAULT_VEHTYPE" fromTaz="T1_680_1" toTaz="T1_880_1" departLane="free" departSpeed="max"/>
  <trip id="4104" depart="3.76" from="93631240" to="4786685" type="DEFAULT_VEHTYPE" fromTaz="T1_680_1" toTaz="T1_280_1" departLane="free" departSpeed="max"/>
  <trip id="2512" depart="3.83" from="957460911" to="966059358" type="DEFAULT_VEHTYPE" fromTaz="T1_680_1" toTaz="T1_17_1" departLane="free" departSpeed="max"/>
  <trip id="12" depart="3.83" from="8927038#1" to="394385111" type="DEFAULT_VEHTYPE" fromTaz="T1_680_1" toTaz="T1_101_1" departLane="free" departSpeed="max"/>
  <trip id="997" depart="3.86" from="93631240" to="515733343" type="DEFAULT_VEHTYPE" fromTaz="T1_680_1" toTaz="T1_101_2" departLane="free" departSpeed="max"/>
  <trip id="4555" depart="3.97" from="8926666" to="992584129" type="DEFAULT_VEHTYPE" fromTaz="T1_680_1" toTaz="T1_880_1" departLane="free" departSpeed="max"/>
  <trip id="2513" depart="4.01" from="957460911" to="966059358" type="DEFAULT_VEHTYPE" fromTaz="T1_680_1" toTaz="T1_17_1" departLane="free" departSpeed="max"/>
  <trip id="998" depart="4.06" from="93631240" to="515733343" type="DEFAULT_VEHTYPE" fromTaz="T1_680_1" toTaz="T1_101_2" departLane="free" departSpeed="max"/>
  <trip id="13" depart="4.14" from="8927038#1" to="394385111" type="DEFAULT_VEHTYPE" fromTaz="T1_680_1" toTaz="T1_101_1" departLane="free" departSpeed="max"/>
  <trip id="4556" depart="4.19" from="8926666" to="992584129" type="DEFAULT_VEHTYPE" fromTaz="T1_680_1" toTaz="T1_880_1" departLane="free" departSpeed="max"/>
  <trip id="2514" depart="4.20" from="957460911" to="966059358" type="DEFAULT_VEHTYPE" fromTaz="T1_680_1" toTaz="T1_17_1" departLane="free" departSpeed="max"/>
  <trip id="999" depart="4.26" from="93631240" to="515733343" type="DEFAULT_VEHTYPE" fromTaz="T1_680_1" toTaz="T1_101_2" departLane="free" departSpeed="max"/>
  <trip id="2515" depart="4.39" from="957460911" to="966059358" type="DEFAULT_VEHTYPE" fromTaz="T1_680_1" toTaz="T1_17_1" departLane="free" departSpeed="max"/>
  <trip id="4557" depart="4.42" from="8926666" to="992584129" type="DEFAULT_VEHTYPE" fromTaz="T1_680_1" toTaz="T1_880_1" departLane="free" departSpeed="max"/>
  <trip id="4105" depart="4.44" from="93631240" to="4786685" type="DEFAULT_VEHTYPE" fromTaz="T1_680_1" toTaz="T1_280_1" departLane="free" departSpeed="max"/>
  <trip id="14" depart="4.45" from="8927038#1" to="394385111" type="DEFAULT_VEHTYPE" fromTaz="T1_680_1" toTaz="T1_101_1" departLane="free" departSpeed="max"/>
  <trip id="1000" depart="4.46" from="93631240" to="515733343" type="DEFAULT_VEHTYPE" fromTaz="T1_680_1" toTaz="T1_101_2" departLane="free" departSpeed="max"/>
  <trip id="2516" depart="4.57" from="957460911" to="966059358" type="DEFAULT_VEHTYPE" fromTaz="T1_680_1" toTaz="T1_17_1" departLane="free" departSpeed="max"/>
  <trip id="4558" depart="4.65" from="8926666" to="992584129" type="DEFAULT_VEHTYPE" fromTaz="T1_680_1" toTaz="T1_880_1" departLane="free" departSpeed="max"/>
  <trip id="1001" depart="4.66" from="93631240" to="515733343" type="DEFAULT_VEHTYPE" fromTaz="T1_680_1" toTaz="T1_101_2" departLane="free" departSpeed="max"/>
  <trip id="15" depart="4.75" from="8927038#1" to="394385111" type="DEFAULT_VEHTYPE" fromTaz="T1_680_1" toTaz="T1_101_1" departLane="free" departSpeed="max"/>
  <trip id="2517" depart="4.76" from="957460911" to="966059358" type="DEFAULT_VEHTYPE" fromTaz="T1_680_1" toTaz="T1_17_1" departLane="free" departSpeed="max"/>
  <trip id="1002" depart="4.85" from="93631240" to="515733343" type="DEFAULT_VEHTYPE" fromTaz="T1_680_1" toTaz="T1_101_2" departLane="free" departSpeed="max"/>
  <trip id="4559" depart="4.87" from="8926666" to="992584129" type="DEFAULT_VEHTYPE" fromTaz="T1_680_1" toTaz="T1_880_1" departLane="free" departSpeed="max"/>
  <trip id="2518" depart="4.95" from="957460911" to="966059358" type="DEFAULT_VEHTYPE" fromTaz="T1_680_1" toTaz="T1_17_1" departLane="free" departSpeed="max"/>
  <trip id="1003" depart="5.05" from="93631240" to="515733343" type="DEFAULT_VEHTYPE" fromTaz="T1_680_1" toTaz="T1_101_2" departLane="free" departSpeed="max"/>
  <trip id="16" depart="5.06" from="8927038#1" to="394385111" type="DEFAULT_VEHTYPE" fromTaz="T1_680_1" toTaz="T1_101_1" departLane="free" departSpeed="max"/>
  <trip id="4560" depart="5.10" from="8926666" to="992584129" type="DEFAULT_VEHTYPE" fromTaz="T1_680_1" toTaz="T1_880_1" departLane="free" departSpeed="max"/>
  <trip id="2519" depart="5.13" from="957460911" to="966059358" type="DEFAULT_VEHTYPE" fromTaz="T1_680_1" toTaz="T1_17_1" departLane="free" departSpeed="max"/>
  <trip id="4106" depart="5.13" from="93631240" to="4786685" type="DEFAULT_VEHTYPE" fromTaz="T1_680_1" toTaz="T1_280_1" departLane="free" departSpeed="max"/>
  <trip id="1004" depart="5.25" from="93631240" to="515733343" type="DEFAULT_VEHTYPE" fromTaz="T1_680_1" toTaz="T1_101_2" departLane="free" departSpeed="max"/>
  <trip id="2520" depart="5.32" from="957460911" to="966059358" type="DEFAULT_VEHTYPE" fromTaz="T1_680_1" toTaz="T1_17_1" departLane="free" departSpeed="max"/>
  <trip id="4561" depart="5.32" from="8926666" to="992584129" type="DEFAULT_VEHTYPE" fromTaz="T1_680_1" toTaz="T1_880_1" departLane="free" departSpeed="max"/>
  <trip id="17" depart="5.37" from="8927038#1" to="394385111" type="DEFAULT_VEHTYPE" fromTaz="T1_680_1" toTaz="T1_101_1" departLane="free" departSpeed="max"/>
  <trip id="1005" depart="5.45" from="93631240" to="515733343" type="DEFAULT_VEHTYPE" fromTaz="T1_680_1" toTaz="T1_101_2" departLane="free" departSpeed="max"/>
  <trip id="2521" depart="5.51" from="957460911" to="966059358" type="DEFAULT_VEHTYPE" fromTaz="T1_680_1" toTaz="T1_17_1" departLane="free" departSpeed="max"/>
  <trip id="4562" depart="5.55" from="8926666" to="992584129" type="DEFAULT_VEHTYPE" fromTaz="T1_680_1" toTaz="T1_880_1" departLane="free" departSpeed="max"/>
  <trip id="1006" depart="5.65" from="93631240" to="515733343" type="DEFAULT_VEHTYPE" fromTaz="T1_680_1" toTaz="T1_101_2" departLane="free" departSpeed="max"/>
  <trip id="18" depart="5.67" from="8927038#1" to="394385111" type="DEFAULT_VEHTYPE" fromTaz="T1_680_1" toTaz="T1_101_1" departLane="free" departSpeed="max"/>
  <trip id="2522" depart="5.69" from="957460911" to="966059358" type="DEFAULT_VEHTYPE" fromTaz="T1_680_1" toTaz="T1_17_1" departLane="free" departSpeed="max"/>
  <trip id="4563" depart="5.78" from="8926666" to="992584129" type="DEFAULT_VEHTYPE" fromTaz="T1_680_1" toTaz="T1_880_1" departLane="free" departSpeed="max"/>
  <trip id="4107" depart="5.81" from="93631240" to="4786685" type="DEFAULT_VEHTYPE" fromTaz="T1_680_1" toTaz="T1_280_1" departLane="free" departSpeed="max"/>
  <trip id="1007" depart="5.85" from="93631240" to="515733343" type="DEFAULT_VEHTYPE" fromTaz="T1_680_1" toTaz="T1_101_2" departLane="free" departSpeed="max"/>
  <trip id="2523" depart="5.88" from="957460911" to="966059358" type="DEFAULT_VEHTYPE" fromTaz="T1_680_1" toTaz="T1_17_1" departLane="free" departSpeed="max"/>
  <trip id="19" depart="5.98" from="8927038#1" to="394385111" type="DEFAULT_VEHTYPE" fromTaz="T1_680_1" toTaz="T1_101_1" departLane="free" departSpeed="max"/>
  <trip id="4564" depart="6.00" from="8926666" to="992584129" type="DEFAULT_VEHTYPE" fromTaz="T1_680_1" toTaz="T1_880_1" departLane="free" departSpeed="max"/>
  <trip id="1008" depart="6.04" from="93631240" to="515733343" type="DEFAULT_VEHTYPE" fromTaz="T1_680_1" toTaz="T1_101_2" departLane="free" departSpeed="max"/>
  <trip id="2524" depart="6.07" from="957460911" to="966059358" type="DEFAULT_VEHTYPE" fromTaz="T1_680_1" toTaz="T1_17_1" departLane="free" departSpeed="max"/>
  <trip id="4565" depart="6.23" from="8926666" to="992584129" type="DEFAULT_VEHTYPE" fromTaz="T1_680_1" toTaz="T1_880_1" departLane="free" departSpeed="max"/>
  <trip id="1009" depart="6.24" from="93631240" to="515733343" type="DEFAULT_VEHTYPE" fromTaz="T1_680_1" toTaz="T1_101_2" departLane="free" departSpeed="max"/>
  <trip id="2525" depart="6.25" from="957460911" to="966059358" type="DEFAULT_VEHTYPE" fromTaz="T1_680_1" toTaz="T1_17_1" departLane="free" departSpeed="max"/>
  <trip id="20" depart="6.29" from="8927038#1" to="394385111" type="DEFAULT_VEHTYPE" fromTaz="T1_680_1" toTaz="T1_101_1" departLane="free" departSpeed="max"/>
  <trip id="2526" depart="6.44" from="957460911" to="966059358" type="DEFAULT_VEHTYPE" fromTaz="T1_680_1" toTaz="T1_17_1" departLane="free" departSpeed="max"/>
  <trip id="1010" depart="6.44" from="93631240" to="515733343" type="DEFAULT_VEHTYPE" fromTaz="T1_680_1" toTaz="T1_101_2" departLane="free" departSpeed="max"/>
  <trip id="4566" depart="6.46" from="8926666" to="992584129" type="DEFAULT_VEHTYPE" fromTaz="T1_680_1" toTaz="T1_880_1" departLane="free" departSpeed="max"/>
  <trip id="4108" depart="6.49" from="93631240" to="4786685" type="DEFAULT_VEHTYPE" fromTaz="T1_680_1" toTaz="T1_280_1" departLane="free" departSpeed="max"/>
  <trip id="21" depart="6.60" from="8927038#1" to="394385111" type="DEFAULT_VEHTYPE" fromTaz="T1_680_1" toTaz="T1_101_1" departLane="free" departSpeed="max"/>
  <trip id="2527" depart="6.63" from="957460911" to="966059358" type="DEFAULT_VEHTYPE" fromTaz="T1_680_1" toTaz="T1_17_1" departLane="free" departSpeed="max"/>
  <trip id="1011" depart="6.64" from="93631240" to="515733343" type="DEFAULT_VEHTYPE" fromTaz="T1_680_1" toTaz="T1_101_2" departLane="free" departSpeed="max"/>
  <trip id="4567" depart="6.68" from="8926666" to="992584129" type="DEFAULT_VEHTYPE" fromTaz="T1_680_1" toTaz="T1_880_1" departLane="free" departSpeed="max"/>
  <trip id="2528" depart="6.81" from="957460911" to="966059358" type="DEFAULT_VEHTYPE" fromTaz="T1_680_1" toTaz="T1_17_1" departLane="free" departSpeed="max"/>
  <trip id="1012" depart="6.84" from="93631240" to="515733343" type="DEFAULT_VEHTYPE" fromTaz="T1_680_1" toTaz="T1_101_2" departLane="free" departSpeed="max"/>
  <trip id="22" depart="6.90" from="8927038#1" to="394385111" type="DEFAULT_VEHTYPE" fromTaz="T1_680_1" toTaz="T1_101_1" departLane="free" departSpeed="max"/>
  <trip id="4568" depart="6.91" from="8926666" to="992584129" type="DEFAULT_VEHTYPE" fromTaz="T1_680_1" toTaz="T1_880_1" departLane="free" departSpeed="max"/>
  <trip id="2529" depart="7.00" from="957460911" to="966059358" type="DEFAULT_VEHTYPE" fromTaz="T1_680_1" toTaz="T1_17_1" departLane="free" departSpeed="max"/>
  <trip id="1013" depart="7.03" from="93631240" to="515733343" type="DEFAULT_VEHTYPE" fromTaz="T1_680_1" toTaz="T1_101_2" departLane="free" departSpeed="max"/>
  <trip id="4569" depart="7.14" from="8926666" to="992584129" type="DEFAULT_VEHTYPE" fromTaz="T1_680_1" toTaz="T1_880_1" departLane="free" departSpeed="max"/>
  <trip id="4109" depart="7.18" from="93631240" to="4786685" type="DEFAULT_VEHTYPE" fromTaz="T1_680_1" toTaz="T1_280_1" departLane="free" departSpeed="max"/>
  <trip id="2530" depart="7.19" from="957460911" to="966059358" type="DEFAULT_VEHTYPE" fromTaz="T1_680_1" toTaz="T1_17_1" departLane="free" departSpeed="max"/>
  <trip id="23" depart="7.21" from="8927038#1" to="394385111" type="DEFAULT_VEHTYPE" fromTaz="T1_680_1" toTaz="T1_101_1" departLane="free" departSpeed="max"/>
  <trip id="1014" depart="7.23" from="93631240" to="515733343" type="DEFAULT_VEHTYPE" fromTaz="T1_680_1" toTaz="T1_101_2" departLane="free" departSpeed="max"/>
  <trip id="4570" depart="7.36" from="8926666" to="992584129" type="DEFAULT_VEHTYPE" fromTaz="T1_680_1" toTaz="T1_880_1" departLane="free" departSpeed="max"/>
  <trip id="2531" depart="7.37" from="957460911" to="966059358" type="DEFAULT_VEHTYPE" fromTaz="T1_680_1" toTaz="T1_17_1" departLane="free" departSpeed="max"/>
  <trip id="1015" depart="7.43" from="93631240" to="515733343" type="DEFAULT_VEHTYPE" fromTaz="T1_680_1" toTaz="T1_101_2" departLane="free" departSpeed="max"/>
  <trip id="24" depart="7.52" from="8927038#1" to="394385111" type="DEFAULT_VEHTYPE" fromTaz="T1_680_1" toTaz="T1_101_1" departLane="free" departSpeed="max"/>
  <trip id="2532" depart="7.56" from="957460911" to="966059358" type="DEFAULT_VEHTYPE" fromTaz="T1_680_1" toTaz="T1_17_1" departLane="free" departSpeed="max"/>
  <trip id="4571" depart="7.59" from="8926666" to="992584129" type="DEFAULT_VEHTYPE" fromTaz="T1_680_1" toTaz="T1_880_1" departLane="free" departSpeed="max"/>
  <trip id="1016" depart="7.63" from="93631240" to="515733343" type="DEFAULT_VEHTYPE" fromTaz="T1_680_1" toTaz="T1_101_2" departLane="free" departSpeed="max"/>
  <trip id="2533" depart="7.75" from="957460911" to="966059358" type="DEFAULT_VEHTYPE" fromTaz="T1_680_1" toTaz="T1_17_1" departLane="free" departSpeed="max"/>
  <trip id="25" depart="7.82" from="8927038#1" to="394385111" type="DEFAULT_VEHTYPE" fromTaz="T1_680_1" toTaz="T1_101_1" departLane="free" departSpeed="max"/>
  <trip id="4572" depart="7.82" from="8926666" to="992584129" type="DEFAULT_VEHTYPE" fromTaz="T1_680_1" toTaz="T1_880_1" departLane="free" departSpeed="max"/>
  <trip id="1017" depart="7.83" from="93631240" to="515733343" type="DEFAULT_VEHTYPE" fromTaz="T1_680_1" toTaz="T1_101_2" departLane="free" departSpeed="max"/>
  <trip id="4110" depart="7.86" from="93631240" to="4786685" type="DEFAULT_VEHTYPE" fromTaz="T1_680_1" toTaz="T1_280_1" departLane="free" departSpeed="max"/>
  <trip id="2534" depart="7.93" from="957460911" to="966059358" type="DEFAULT_VEHTYPE" fromTaz="T1_680_1" toTaz="T1_17_1" departLane="free" departSpeed="max"/>
  <trip id="1018" depart="8.03" from="93631240" to="515733343" type="DEFAULT_VEHTYPE" fromTaz="T1_680_1" toTaz="T1_101_2" departLane="free" departSpeed="max"/>
  <trip id="4573" depart="8.04" from="8926666" to="992584129" type="DEFAULT_VEHTYPE" fromTaz="T1_680_1" toTaz="T1_880_1" departLane="free" departSpeed="max"/>
  <trip id="2535" depart="8.12" from="957460911" to="966059358" type="DEFAULT_VEHTYPE" fromTaz="T1_680_1" toTaz="T1_17_1" departLane="free" departSpeed="max"/>
  <trip id="26" depart="8.13" from="8927038#1" to="394385111" type="DEFAULT_VEHTYPE" fromTaz="T1_680_1" toTaz="T1_101_1" departLane="free" departSpeed="max"/>
  <trip id="1019" depart="8.22" from="93631240" to="515733343" type="DEFAULT_VEHTYPE" fromTaz="T1_680_1" toTaz="T1_101_2" departLane="free" departSpeed="max"/>
  <trip id="4574" depart="8.27" from="8926666" to="992584129" type="DEFAULT_VEHTYPE" fromTaz="T1_680_1" toTaz="T1_880_1" departLane="free" departSpeed="max"/>
  <trip id="2536" depart="8.31" from="957460911" to="966059358" type="DEFAULT_VEHTYPE" fromTaz="T1_680_1" toTaz="T1_17_1" departLane="free" departSpeed="max"/>
  <trip id="1020" depart="8.42" from="93631240" to="515733343" type="DEFAULT_VEHTYPE" fromTaz="T1_680_1" toTaz="T1_101_2" departLane="free" departSpeed="max"/>
  <trip id="27" depart="8.44" from="8927038#1" to="394385111" type="DEFAULT_VEHTYPE" fromTaz="T1_680_1" toTaz="T1_101_1" departLane="free" departSpeed="max"/>
  <trip id="2537" depart="8.49" from="957460911" to="966059358" type="DEFAULT_VEHTYPE" fromTaz="T1_680_1" toTaz="T1_17_1" departLane="free" departSpeed="max"/>
  <trip id="4575" depart="8.50" from="8926666" to="992584129" type="DEFAULT_VEHTYPE" fromTaz="T1_680_1" toTaz="T1_880_1" departLane="free" departSpeed="max"/>
  <trip id="4111" depart="8.54" from="93631240" to="4786685" type="DEFAULT_VEHTYPE" fromTaz="T1_680_1" toTaz="T1_280_1" departLane="free" departSpeed="max"/>
  <trip id="1021" depart="8.62" from="93631240" to="515733343" type="DEFAULT_VEHTYPE" fromTaz="T1_680_1" toTaz="T1_101_2" departLane="free" departSpeed="max"/>
  <trip id="2538" depart="8.68" from="957460911" to="966059358" type="DEFAULT_VEHTYPE" fromTaz="T1_680_1" toTaz="T1_17_1" departLane="free" departSpeed="max"/>
  <trip id="4576" depart="8.72" from="8926666" to="992584129" type="DEFAULT_VEHTYPE" fromTaz="T1_680_1" toTaz="T1_880_1" departLane="free" departSpeed="max"/>
  <trip id="28" depart="8.74" from="8927038#1" to="394385111" type="DEFAULT_VEHTYPE" fromTaz="T1_680_1" toTaz="T1_101_1" departLane="free" departSpeed="max"/>
  <trip id="1022" depart="8.82" from="93631240" to="515733343" type="DEFAULT_VEHTYPE" fromTaz="T1_680_1" toTaz="T1_101_2" departLane="free" departSpeed="max"/>
  <trip id="2539" depart="8.87" from="957460911" to="966059358" type="DEFAULT_VEHTYPE" fromTaz="T1_680_1" toTaz="T1_17_1" departLane="free" departSpeed="max"/>
  <trip id="4577" depart="8.95" from="8926666" to="992584129" type="DEFAULT_VEHTYPE" fromTaz="T1_680_1" toTaz="T1_880_1" departLane="free" departSpeed="max"/>
  <trip id="1023" depart="9.02" from="93631240" to="515733343" type="DEFAULT_VEHTYPE" fromTaz="T1_680_1" toTaz="T1_101_2" departLane="free" departSpeed="max"/>
  <trip id="2540" depart="9.05" from="957460911" to="966059358" type="DEFAULT_VEHTYPE" fromTaz="T1_680_1" toTaz="T1_17_1" departLane="free" departSpeed="max"/>
  <trip id="29" depart="9.05" from="8927038#1" to="394385111" type="DEFAULT_VEHTYPE" fromTaz="T1_680_1" toTaz="T1_101_1" departLane="free" departSpeed="max"/>
  <trip id="4578" depart="9.18" from="8926666" to="992584129" type="DEFAULT_VEHTYPE" fromTaz="T1_680_1" toTaz="T1_880_1" departLane="free" departSpeed="max"/>
  <trip id="1024" depart="9.21" from="93631240" to="515733343" type="DEFAULT_VEHTYPE" fromTaz="T1_680_1" toTaz="T1_101_2" departLane="free" departSpeed="max"/>
  <trip id="4112" depart="9.23" from="93631240" to="4786685" type="DEFAULT_VEHTYPE" fromTaz="T1_680_1" toTaz="T1_280_1" departLane="free" departSpeed="max"/>
  <trip id="2541" depart="9.24" from="957460911" to="966059358" type="DEFAULT_VEHTYPE" fromTaz="T1_680_1" toTaz="T1_17_1" departLane="free" departSpeed="max"/>
  <trip id="30" depart="9.36" from="8927038#1" to="394385111" type="DEFAULT_VEHTYPE" fromTaz="T1_680_1" toTaz="T1_101_1" departLane="free" departSpeed="max"/>
  <trip id="4579" depart="9.40" from="8926666" to="992584129" type="DEFAULT_VEHTYPE" fromTaz="T1_680_1" toTaz="T1_880_1" departLane="free" departSpeed="max"/>
  <trip id="1025" depart="9.41" from="93631240" to="515733343" type="DEFAULT_VEHTYPE" fromTaz="T1_680_1" toTaz="T1_101_2" departLane="free" departSpeed="max"/>
  <trip id="2542" depart="9.43" from="957460911" to="966059358" type="DEFAULT_VEHTYPE" fromTaz="T1_680_1" toTaz="T1_17_1" departLane="free" departSpeed="max"/>
  <trip id="2543" depart="9.61" from="957460911" to="966059358" type="DEFAULT_VEHTYPE" fromTaz="T1_680_1" toTaz="T1_17_1" departLane="free" departSpeed="max"/>
  <trip id="1026" depart="9.61" from="93631240" to="515733343" type="DEFAULT_VEHTYPE" fromTaz="T1_680_1" toTaz="T1_101_2" departLane="free" departSpeed="max"/>