<?xml version='1.0' encoding='utf-8'?>
<routes>
  <trip id="0" depart="0.08" from="8927038#1" to="394385111" type="DEFAULT_VEHTYPE" fromTaz="T1_680_1" toTaz="T1_101_1" departLane="free" departSpeed="max"/>
  <trip id="1808" depart="0.09" from="93631240" to="515733343" type="DEFAULT_VEHTYPE" fromTaz="T1_680_1" toTaz="T1_101_2" departLane="free" departSpeed="max"/>
  <trip id="4947" depart="0.09" from="8926666" to="992584129" type="DEFAULT_VEHTYPE" fromTaz="T1_680_1" toTaz="T1_880_1" departLane="free" departSpeed="max"/>
  <trip id="3466" depart="0.11" from="957460911" to="966059358" type="DEFAULT_VEHTYPE" fromTaz="T1_680_1" toTaz="T1_17_1" departLane="free" departSpeed="max"/>
  <trip id="1" depart="0.25" from="8927038#1" to="394385111" type="DEFAULT_VEHTYPE" fromTaz="T1_680_1" toTaz="T1_101_1" departLane="free" departSpeed="max"/>
  <trip id="1809" depart="0.27" from="93631240" to="515733343" type="DEFAULT_VEHTYPE" fromTaz="T1_680_1" toTaz="T1_101_2" departLane="free" departSpeed="max"/>
  <trip id="4948" depart="0.27" from="8926666" to="992584129" type="DEFAULT_VEHTYPE" fromTaz="T1_680_1" toTaz="T1_880_1" departLane="free" departSpeed="max"/>
  <trip id="3467" depart="0.32" from="957460911" to="966059358" type="DEFAULT_VEHTYPE" fromTaz="T1_680_1" toTaz="T1_17_1" departLane="free" departSpeed="max"/>
  <trip id="2" depart="0.41" from="8927038#1" to="394385111" type="DEFAULT_VEHTYPE" fromTaz="T1_680_1" toTaz="T1_101_1" departLane="free" departSpeed="max"/>
  <trip id="1810" depart="0.45" from="93631240" to="515733343" type="DEFAULT_VEHTYPE" fromTaz="T1_680_1" toTaz="T1_101_2" departLane="free" departSpeed="max"/>
  <trip id="4949" depart="0.46" from="8926666" to="992584129" type="DEFAULT_VEHTYPE" fromTaz="T1_680_1" toTaz="T1_880_1" departLane="free" departSpeed="max"/>
  <trip id="3468" depart="0.53" from="957460911" to="966059358" type="DEFAULT_VEHTYPE" fromTaz="T1_680_1" toTaz="T1_17_1" departLane="free" departSpeed="max"/>
  <trip id="3" depart="0.58" from="8927038#1" to="394385111" type="DEFAULT_VEHTYPE" fromTaz="T1_680_1" toTaz="T1_101_1" departLane="free" departSpeed="max"/>
  <trip id="1811" depart="0.63" from="93631240" to="515733343" type="DEFAULT_VEHTYPE" fromTaz="T1_680_1" toTaz="T1_101_2" departLane="free" departSpeed="max"/>
  <trip id="4950" depart="0.64" from="8926666" to="992584129" type="DEFAULT_VEHTYPE" fromTaz="T1_680_1" toTaz="T1_880_1" departLane="free" departSpeed="max"/>
  <trip id="4" depart="0.75" from="8927038#1" to="394385111" type="DEFAULT_VEHTYPE" fromTaz="T1_680_1" toTaz="T1_101_1" departLane="free" departSpeed="max"/>
  <trip id="3469" depart="0.75" from="957460911" to="966059358" type="DEFAULT_VEHTYPE" fromTaz="T1_680_1" toTaz="T1_17_1" departLane="free" departSpeed="max"/>
  <trip id="1812" depart="0.81" from="93631240" to="515733343" type="DEFAULT_VEHTYPE" fromTaz="T1_680_1" toTaz="T1_101_2" departLane="free" departSpeed="max"/>
  <trip id="4951" depart="0.82" from="8926666" to="992584129" type="DEFAULT_VEHTYPE" fromTaz="T1_680_1" toTaz="T1_880_1" departLane="free" departSpeed="max"/>
  <trip id="5" depart="0.91" from="8927038#1" to="394385111" type="DEFAULT_VEHTYPE" fromTaz="T1_680_1" toTaz="T1_101_1" departLane="free" departSpeed="max"/>
  <trip id="3470" depart="0.96" from="957460911" to="966059358" type="DEFAULT_VEHTYPE" fromTaz="T1_680_1" toTaz="T1_17_1" departLane="free" departSpeed="max"/>
  <trip id="4952" depart="1.00" from="8926666" to="992584129" type="DEFAULT_VEHTYPE" fromTaz="T1_680_1" toTaz="T1_880_1" departLane="free" departSpeed="max"/>
  <trip id="1813" depart="1.00" from="93631240" to="515733343" type="DEFAULT_VEHTYPE" fromTaz="T1_680_1" toTaz="T1_101_2" departLane="free" departSpeed="max"/>
  <trip id="6" depart="1.08" from="8927038#1" to="394385111" type="DEFAULT_VEHTYPE" fromTaz="T1_680_1" toTaz="T1_101_1" departLane="free" departSpeed="max"/>
  <trip id="1814" depart="1.18" from="93631240" to="515733343" type="DEFAULT_VEHTYPE" fromTaz="T1_680_1" toTaz="T1_101_2" departLane="free" departSpeed="max"/>
  <trip id="3471" depart="1.18" from="957460911" to="966059358" type="DEFAULT_VEHTYPE" fromTaz="T1_680_1" toTaz="T1_17_1" departLane="free" departSpeed="max"/>
  <trip id="4953" depart="1.19" from="8926666" to="992584129" type="DEFAULT_VEHTYPE" fromTaz="T1_680_1" toTaz="T1_880_1" departLane="free" departSpeed="max"/>
  <trip id="7" depart="1.24" from="8927038#1" to="394385111" type="DEFAULT_VEHTYPE" fromTaz="T1_680_1" toTaz="T1_101_1" departLane="free" departSpeed="max"/>
  <trip id="1815" depart="1.36" from="93631240" to="515733343" type="DEFAULT_VEHTYPE" fromTaz="T1_680_1" toTaz="T1_101_2" departLane="free" departSpeed="max"/>
  <trip id="4954" depart="1.37" from="8926666" to="992584129" type="DEFAULT_VEHTYPE" fromTaz="T1_680_1" toTaz="T1_880_1" departLane="free" departSpeed="max"/>
  <trip id="3472" depart="1.39" from="957460911" to="966059358" type="DEFAULT_VEHTYPE" fromTaz="T1_680_1" toTaz="T1_17_1" departLane="free" departSpeed="max"/>
  <trip id="8" depart="1.41" from="8927038#1" to="394385111" type="DEFAULT_VEHTYPE" fromTaz="T1_680_1" toTaz="T1_101_1" departLane="free" departSpeed="max"/>
  <trip id="1816" depart="1.54" from="93631240" to="515733343" type="DEFAULT_VEHTYPE" fromTaz="T1_680_1" toTaz="T1_101_2" departLane="free" departSpeed="max"/>
  <trip id="4955" depart="1.55" from="8926666" to="992584129" type="DEFAULT_VEHTYPE" fromTaz="T1_680_1" toTaz="T1_880_1" departLane="free" departSpeed="max"/>
  <trip id="9" depart="1.58" from="8927038#1" to="394385111" type="DEFAULT_VEHTYPE" fromTaz="T1_680_1" toTaz="T1_101_1" departLane="free" departSpeed="max"/>
  <trip id="3473" depart="1.60" from="957460911" to="966059358" type="DEFAULT_VEHTYPE" fromTaz="T1_680_1" toTaz="T1_17_1" departLane="free" departSpeed="max"/>
  <trip id="1817" depart="1.72" from="93631240" to="515733343" type="DEFAULT_VEHTYPE" fromTaz="T1_680_1" toTaz="T1_101_2" departLane="free" departSpeed="max"/>
  <trip id="4956" depart="1.73" from="8926666" to="992584129" type="DEFAULT_VEHTYPE" fromTaz="T1_680_1" toTaz="T1_880_1" departLane="free" departSpeed="max"/>
  <trip id="10" depart="1.74" from="8927038#1" to="394385111" type="DEFAULT_VEHTYPE" fromTaz="T1_680_1" toTaz="T1_101_1" departLane="free" departSpeed="max"/>
  <trip id="3474" depart="1.82" from="957460911" to="966059358" type="DEFAULT_VEHTYPE" fromTaz="T1_680_1" toTaz="T1_17_1" departLane="free" departSpeed="max"/>
  <trip id="1818" depart="1.90" from="93631240" to="515733343" type="DEFAULT_VEHTYPE" fromTaz="T1_680_1" toTaz="T1_101_2" departLane="free" departSpeed="max"/>
  <trip id="4868" depart="1.90" from="93631240" to="4786685" type="DEFAULT_VEHTYPE" fromTaz="T1_680_1" toTaz="T1_280_1" departLane="free" departSpeed="max"/>
  <trip id="11" depart="1.91" from="8927038#1" to="394385111" type="DEFAULT_VEHTYPE" fromTaz="T1_680_1" toTaz="T1_101_1" departLane="free" departSpeed="max"/>
  <trip id="4957" depart="1.92" from="8926666" to="992584129" type="DEFAULT_VEHTYPE" fromTaz="T1_680_1" toTaz="T1_880_1" departLane="free" departSpeed="max"/>
  <trip id="3475" depart="2.03" from="957460911" to="966059358" type="DEFAULT_VEHTYPE" fromTaz="T1_680_1" toTaz="T1_17_1" departLane="free" departSpeed="max"/>
  <trip id="12" depart="2.07" from="8927038#1" to="394385111" type="DEFAULT_VEHTYPE" fromTaz="T1_680_1" toTaz="T1_101_1" departLane="free" departSpeed="max"/>
  <trip id="1819" depart="2.08" from="93631240" to="515733343" type="DEFAULT_VEHTYPE" fromTaz="T1_680_1" toTaz="T1_101_2" departLane="free" departSpeed="max"/>
  <trip id="4958" depart="2.10" from="8926666" to="992584129" type="DEFAULT_VEHTYPE" fromTaz="T1_680_1" toTaz="T1_880_1" departLane="free" departSpeed="max"/>
  <trip id="13" depart="2.24" from="8927038#1" to="394385111" type="DEFAULT_VEHTYPE" fromTaz="T1_680_1" toTaz="T1_101_1" departLane="free" departSpeed="max"/>
  <trip id="3476" depart="2.25" from="957460911" to="966059358" type="DEFAULT_VEHTYPE" fromTaz="T1_680_1" toTaz="T1_17_1" departLane="free" departSpeed="max"/>
  <trip id="1820" depart="2.26" from="93631240" to="515733343" type="DEFAULT_VEHTYPE" fromTaz="T1_680_1" toTaz="T1_101_2" departLane="free" departSpeed="max"/>
  <trip id="4959" depart="2.28" from="8926666" to="992584129" type="DEFAULT_VEHTYPE" fromTaz="T1_680_1" toTaz="T1_880_1" departLane="free" departSpeed="max"/>
  <trip id="14" depart="2.41" from="8927038#1" to="394385111" type="DEFAULT_VEHTYPE" fromTaz="T1_680_1" toTaz="T1_101_1" departLane="free" departSpeed="max"/>
  <trip id="1821" depart="2.44" from="93631240" to="515733343" type="DEFAULT_VEHTYPE" fromTaz="T1_680_1" toTaz="T1_101_2" departLane="free" departSpeed="max"/>
  <trip id="3477" depart="2.46" from="957460911" to="966059358" type="DEFAULT_VEHTYPE" fromTaz="T1_680_1" toTaz="T1_17_1" departLane="free" departSpeed="max"/>
  <trip id="4960" depart="2.46" from="8926666" to="992584129" type="DEFAULT_VEHTYPE" fromTaz="T1_680_1" toTaz="T1_880_1" departLane="free" departSpeed="max"/>
  <trip id="15" depart="2.57" from="8927038#1" to="394385111" type="DEFAULT_VEHTYPE" fromTaz="T1_680_1" toTaz="T1_101_1" departLane="free" departSpeed="max"/>
  <trip id="1822" depart="2.62" from="93631240" to="515733343" type="DEFAULT_VEHTYPE" fromTaz="T1_680_1" toTaz="T1_101_2" departLane="free" departSpeed="max"/>
  <trip id="4961" depart="2.65" from="8926666" to="992584129" type="DEFAULT_VEHTYPE" fromTaz="T1_680_1" toTaz="T1_880_1" departLane="free" departSpeed="max"/>
  <trip id="3478" depart="2.67" from="957460911" to="966059358" type="DEFAULT_VEHTYPE" fromTaz="T1_680_1" toTaz="T1_17_1" departLane="free" departSpeed="max"/>
  <trip id="16" depart="2.74" from="8927038#1" to="394385111" type="DEFAULT_VEHTYPE" fromTaz="T1_680_1" toTaz="T1_101_1" departLane="free" departSpeed="max"/>
  <trip id="1823" depart="2.80" from="93631240" to="515733343" type="DEFAULT_VEHTYPE" fromTaz="T1_680_1" toTaz="T1_101_2" departLane="free" departSpeed="max"/>
  <trip id="4962" depart="2.83" from="8926666" to="992584129" type="DEFAULT_VEHTYPE" fromTaz="T1_680_1" toTaz="T1_880_1" departLane="free" departSpeed="max"/>
  <trip id="3479" depart="2.89" from="957460911" to="966059358" type="DEFAULT_VEHTYPE" fromTaz="T1_680_1" toTaz="T1_17_1" departLane="free" departSpeed="max"/>
  <trip id="17" depart="2.90" from="8927038#1" to="394385111" type="DEFAULT_VEHTYPE" fromTaz="T1_680_1" toTaz="T1_101_1" departLane="free" departSpeed="max"/>
  <trip id="1824" depart="2.99" from="93631240" to="515733343" type="DEFAULT_VEHTYPE" fromTaz="T1_680_1" toTaz="T1_101_2" departLane="free" departSpeed="max"/>
  <trip id="4963" depart="3.01" from="8926666" to="992584129" type="DEFAULT_VEHTYPE" fromTaz="T1_680_1" toTaz="T1_880_1" departLane="free" departSpeed="max"/>
  <trip id="18" depart="3.07" from="8927038#1" to="394385111" type="DEFAULT_VEHTYPE" fromTaz="T1_680_1" toTaz="T1_101_1" departLane="free" departSpeed="max"/>
  <trip id="3480" depart="3.10" from="957460911" to="966059358" type="DEFAULT_VEHTYPE" fromTaz="T1_680_1" toTaz="T1_17_1" departLane="free" departSpeed="max"/>
  <trip id="1825" depart="3.17" from="93631240" to="515733343" type="DEFAULT_VEHTYPE" fromTaz="T1_680_1" toTaz="T1_101_2" departLane="free" departSpeed="max"/>
  <trip id="4964" depart="3.19" from="8926666" to="992584129" type="DEFAULT_VEHTYPE" fromTaz="T1_680_1" toTaz="T1_880_1" departLane="free" departSpeed="max"/>
  <trip id="19" depart="3.24" from="8927038#1" to="394385111" type="DEFAULT_VEHTYPE" fromTaz="T1_680_1" toTaz="T1_101_1" departLane="free" departSpeed="max"/>
  <trip id="3481" depart="3.32" from="957460911" to="966059358" type="DEFAULT_VEHTYPE" fromTaz="T1_680_1" toTaz="T1_17_1" departLane="free" departSpeed="max"/>
  <trip id="1826" depart="3.35" from="93631240" to="515733343" type="DEFAULT_VEHTYPE" fromTaz="T1_680_1" toTaz="T1_101_2" departLane="free" departSpeed="max"/>
  <trip id="4965" depart="3.38" from="8926666" to="992584129" type="DEFAULT_VEHTYPE" fromTaz="T1_680_1" toTaz="T1_880_1" departLane="free" departSpeed="max"/>
  <trip id="20" depart="3.40" from="8927038#1" to="394385111" type="DEFAULT_VEHTYPE" fromTaz="T1_680_1" toTaz="T1_101_1" departLane="free" departSpeed="max"/>
  <trip id="1827" depart="3.53" from="93631240" to="515733343" type="DEFAULT_VEHTYPE" fromTaz="T1_680_1" toTaz="T1_101_2" departLane="free" departSpeed="max"/>
  <trip id="3482" depart="3.53" from="957460911" to="966059358" type="DEFAULT_VEHTYPE" fromTaz="T1_680_1" toTaz="T1_17_1" departLane="free" departSpeed="max"/>
  <trip id="4966" depart="3.56" from="8926666" to="992584129" type="DEFAULT_VEHTYPE" fromTaz="T1_680_1" toTaz="T1_880_1" departLane="free" departSpeed="max"/>
  <trip id="21" depart="3.57" from="8927038#1" to="394385111" type="DEFAULT_VEHTYPE" fromTaz="T1_680_1" toTaz="T1_101_1" departLane="free" departSpeed="max"/>
  <trip id="1828" depart="3.71" from="93631240" to="515733343" type="DEFAULT_VEHTYPE" fromTaz="T1_680_1" toTaz="T1_101_2" departLane="free" departSpeed="max"/>
  <trip id="22" depart="3.73" from="8927038#1" to="394385111" type="DEFAULT_VEHTYPE" fromTaz="T1_680_1" toTaz="T1_101_1" departLane="free" departSpeed="max"/>
  <trip id="3483" depart="3.74" from="957460911" to="966059358" type="DEFAULT_VEHTYPE" fromTaz="T1_680_1" toTaz="T1_17_1" departLane="free" departSpeed="max"/>
  <trip id="4967" depart="3.74" from="8926666" to="992584129" type="DEFAULT_VEHTYPE" fromTaz="T1_680_1" toTaz="T1_880_1" departLane="free" departSpeed="max"/>
  <trip id="1829" depart="3.89" from="93631240" to="515733343" type="DEFAULT_VEHTYPE" fromTaz="T1_680_1" toTaz="T1_101_2" departLane="free" departSpeed="max"/>
  <trip id="23" depart="3.90" from="8927038#1" to="394385111" type="DEFAULT_VEHTYPE" fromTaz="T1_680_1" toTaz="T1_101_1" departLane="free" departSpeed="max"/>
  <trip id="4968" depart="3.92" from="8926666" to="992584129" type="DEFAULT_VEHTYPE" fromTaz="T1_680_1" toTaz="T1_880_1" departLane="free" departSpeed="max"/>
  <trip id="3484" depart="3.96" from="957460911" to="966059358" type="DEFAULT_VEHTYPE" fromTaz="T1_680_1" toTaz="T1_17_1" departLane="free" departSpeed="max"/>
  <trip id="1830" depart="4.07" from="93631240" to="515733343" type="DEFAULT_VEHTYPE" fromTaz="T1_680_1" toTaz="T1_101_2" departLane="free" departSpeed="max"/>
  <trip id="24" depart="4.07" from="8927038#1" to="394385111" type="DEFAULT_VEHTYPE" fromTaz="T1_680_1" toTaz="T1_101_1" departLane="free" departSpeed="max"/>
  <trip id="4969" depart="4.11" from="8926666" to="992584129" type="DEFAULT_VEHTYPE" fromTaz="T1_680_1" toTaz="T1_880_1" departLane="free" departSpeed="max"/>
  <trip id="3485" depart="4.17" from="957460911" to="966059358" type="DEFAULT_VEHTYPE" fromTaz="T1_680_1" toTaz="T1_17_1" departLane="free" departSpeed="max"/>
  <trip id="25" depart="4.23" from="8927038#1" to="394385111" type="DEFAULT_VEHTYPE" fromTaz="T1_680_1" toTaz="T1_101_1" departLane="free" departSpeed="max"/>
  <trip id="1831" depart="4.25" from="93631240" to="515733343" type="DEFAULT_VEHTYPE" fromTaz="T1_680_1" toTaz="T1_101_2" departLane="free" departSpeed="max"/>
  <trip id="4970" depart="4.29" from="8926666" to="992584129" type="DEFAULT_VEHTYPE" fromTaz="T1_680_1" toTaz="T1_880_1" departLane="free" departSpeed="max"/>
  <trip id="3486" depart="4.39" from="957460911" to="966059358" type="DEFAULT_VEHTYPE" fromTaz="T1_680_1" toTaz="T1_17_1" departLane="free" departSpeed="max"/>
  <trip id="26" depart="4.40" from="8927038#1" to="394385111" type="DEFAULT_VEHTYPE" fromTaz="T1_680_1" toTaz="T1_101_1" departLane="free" departSpeed="max"/>
  <trip id="1832" depart="4.43" from="93631240" to="515733343" type="DEFAULT_VEHTYPE" fromTaz="T1_680_1" toTaz="T1_101_2" departLane="free" departSpeed="max"/>
  <trip id="4971" depart="4.47" from="8926666" to="992584129" type="DEFAULT_VEHTYPE" fromTaz="T1_680_1" toTaz="T1_880_1" departLane="free" departSpeed="max"/>
  <trip id="27" depart="4.56" from="8927038#1" to="394385111" type="DEFAULT_VEHTYPE" fromTaz="T1_680_1" toTaz="T1_101_1" departLane="free" departSpeed="max"/>
  <trip id="3487" depart="4.60" from="957460911" to="966059358" type="DEFAULT_VEHTYPE" fromTaz="T1_680_1" toTaz="T1_17_1" departLane="free" departSpeed="max"/>
  <trip id="1833" depart="4.61" from="93631240" to="515733343" type="DEFAULT_VEHTYPE" fromTaz="T1_680_1" toTaz="T1_101_2" departLane="free" departSpeed="max"/>
  <trip id="4972" depart="4.65" from="8926666" to="992584129" type="DEFAULT_VEHTYPE" fromTaz="T1_680_1" toTaz="T1_880_1" departLane="free" departSpeed="max"/>
  <trip id="28" depart="4.73" from="8927038#1" to="394385111" type="DEFAULT_VEHTYPE" fromTaz="T1_680_1" toTaz="T1_101_1" departLane="free" departSpeed="max"/>
  <trip id="1834" depart="4.79" from="93631240" to="515733343" type="DEFAULT_VEHTYPE" fromTaz="T1_680_1" toTaz="T1_101_2" departLane="free" departSpeed="max"/>
  <trip id="3488" depart="4.81" from="957460911" to="966059358" type="DEFAULT_VEHTYPE" fromTaz="T1_680_1" toTaz="T1_17_1" departLane="free" departSpeed="max"/>
  <trip id="4973" depart="4.84" from="8926666" to="992584129" type="DEFAULT_VEHTYPE" fromTaz="T1_680_1" toTaz="T1_880_1" departLane="free" departSpeed="max"/>
  <trip id="29" depart="4.89" from="8927038#1" to="394385111" type="DEFAULT_VEHTYPE" fromTaz="T1_680_1" toTaz="T1_101_1" departLane="free" departSpeed="max"/>
  <trip id="1835" depart="4.98" from="93631240" to="515733343" type="DEFAULT_VEHTYPE" fromTaz="T1_680_1" toTaz="T1_101_2" departLane="free" departSpeed="max"/>
  <trip id="4974" depart="5.02" from="8926666" to="992584129" type="DEFAULT_VEHTYPE" fromTaz="T1_680_1" toTaz="T1_880_1" departLane="free" departSpeed="max"/>
  <trip id="3489" depart="5.03" from="957460911" to="966059358" type="DEFAULT_VEHTYPE" fromTaz="T1_680_1" toTaz="T1_17_1" departLane="free" departSpeed="max"/>
  <trip id="30" depart="5.06" from="8927038#1" to="394385111" type="DEFAULT_VEHTYPE" fromTaz="T1_680_1" toTaz="T1_101_1" departLane="free" departSpeed="max"/>
  <trip id="1836" depart="5.16" from="93631240" to="515733343" type="DEFAULT_VEHTYPE" fromTaz="T1_680_1" toTaz="T1_101_2" departLane="free" departSpeed="max"/>
  <trip id="4975" depart="5.20" from="8926666" to="992584129" type="DEFAULT_VEHTYPE" fromTaz="T1_680_1" toTaz="T1_880_1" departLane="free" departSpeed="max"/>
  <trip id="31" depart="5.23" from="8927038#1" to="394385111" type="DEFAULT_VEHTYPE" fromTaz="T1_680_1" toTaz="T1_101_1" departLane="free" departSpeed="max"/>
  <trip id="3490" depart="5.24" from="957460911" to="966059358" type="DEFAULT_VEHTYPE" fromTaz="T1_680_1" toTaz="T1_17_1" departLane="free" departSpeed="max"/>
  <trip id="1837" depart="5.34" from="93631240" to="515733343" type="DEFAULT_VEHTYPE" fromTaz="T1_680_1" toTaz="T1_101_2" departLane="free" departSpeed="max"/>
  <trip id="4976" depart="5.38" from="8926666" to="992584129" type="DEFAULT_VEHTYPE" fromTaz="T1_680_1" toTaz="T1_880_1" departLane="free" departSpeed="max"/>
  <trip id="32" depart="5.39" from="8927038#1" to="394385111" type="DEFAULT_VEHTYPE" fromTaz="T1_680_1" toTaz="T1_101_1" departLane="free" departSpeed="max"/>
  <trip id="3491" depart="5.46" from="957460911" to="966059358" type="DEFAULT_VEHTYPE" fromTaz="T1_680_1" toTaz="T1_17_1" departLane="free" departSpeed="max"/>
  <trip id="1838" depart="5.52" from="93631240" to="515733343" type="DEFAULT_VEHTYPE" fromTaz="T1_680_1" toTaz="T1_101_2" departLane="free" departSpeed="max"/>
  <trip id="33" depart="5.56" from="8927038#1" to="394385111" type="DEFAULT_VEHTYPE" fromTaz="T1_680_1" toTaz="T1_101_1" departLane="free" departSpeed="max"/>
  <trip id="4977" depart="5.57" from="8926666" to="992584129" type="DEFAULT_VEHTYPE" fromTaz="T1_680_1" toTaz="T1_880_1" departLane="free" departSpeed="max"/>
  <trip id="3492" depart="5.67" from="957460911" to="966059358" type="DEFAULT_VEHTYPE" fromTaz="T1_680_1" toTaz="T1_17_1" departLane="free" departSpeed="max"/>
  <trip id="1839" depart="5.70" from="93631240" to="515733343" type="DEFAULT_VEHTYPE" fromTaz="T1_680_1" toTaz="T1_101_2" departLane="free" departSpeed="max"/>
  <trip id="4869" depart="5.70" from="93631240" to="4786685" type="DEFAULT_VEHTYPE" fromTaz="T1_680_1" toTaz="T1_280_1" departLane="free" departSpeed="max"/>
  <trip id="34" depart="5.72" from="8927038#1" to="394385111" type="DEFAULT_VEHTYPE" fromTaz="T1_680_1" toTaz="T1_101_1" departLane="free" departSpeed="max"/>
  <trip id="4978" depart="5.75" from="8926666" to="992584129" type="DEFAULT_VEHTYPE" fromTaz="T1_680_1" toTaz="T1_880_1" departLane="free" departSpeed="max"/>
  <trip id="1840" depart="5.88" from="93631240" to="515733343" type="DEFAULT_VEHTYPE" fromTaz="T1_680_1" toTaz="T1_101_2" departLane="free" departSpeed="max"/>
  <trip id="3493" depart="5.88" from="957460911" to="966059358" type="DEFAULT_VEHTYPE" fromTaz="T1_680_1" toTaz="T1_17_1" departLane="free" departSpeed="max"/>
  <trip id="35" depart="5.89" from="8927038#1" to="394385111" type="DEFAULT_VEHTYPE" fromTaz="T1_680_1" toTaz="T1_101_1" departLane="free" departSpeed="max"/>
  <trip id="4979" depart="5.93" from="8926666" to="992584129" type="DEFAULT_VEHTYPE" fromTaz="T1_680_1" toTaz="T1_880_1" departLane="free" departSpeed="max"/>
  <trip id="36" depart="6.06" from="8927038#1" to="394385111" type="DEFAULT_VEHTYPE" fromTaz="T1_680_1" toTaz="T1_101_1" departLane="free" departSpeed="max"/>
  <trip id="1841" depart="6.06" from="93631240" to="515733343" type="DEFAULT_VEHTYPE" fromTaz="T1_680_1" toTaz="T1_101_2" departLane="free" departSpeed="max"/>
  <trip id="3494" depart="6.10" from="957460911" to="966059358" type="DEFAULT_VEHTYPE" fromTaz="T1_680_1" toTaz="T1_17_1" departLane="free" departSpeed="max"/>
  <trip id="4980" depart="6.11" from="8926666" to="992584129" type="DEFAULT_VEHTYPE" fromTaz="T1_680_1" toTaz="T1_880_1" departLane="free" departSpeed="max"/>
  <trip id="37" depart="6.22" from="8927038#1" to="394385111" type="DEFAULT_VEHTYPE" fromTaz="T1_680_1" toTaz="T1_101_1" departLane="free" departSpeed="max"/>
  <trip id="1842" depart="6.24" from="93631240" to="515733343" type="DEFAULT_VEHTYPE" fromTaz="T1_680_1" toTaz="T1_101_2" departLane="free" departSpeed="max"/>
  <trip id="4981" depart="6.30" from="8926666" to="992584129" type="DEFAULT_VEHTYPE" fromTaz="T1_680_1" toTaz="T1_880_1" departLane="free" departSpeed="max"/>
  <trip id="3495" depart="6.31" from="957460911" to="966059358" type="DEFAULT_VEHTYPE" fromTaz="T1_680_1" toTaz="T1_17_1" departLane="free" departSpeed="max"/>
  <trip id="38" depart="6.39" from="8927038#1" to="394385111" type="DEFAULT_VEHTYPE" fromTaz="T1_680_1" toTaz="T1_101_1" departLane="free" departSpeed="max"/>
  <trip id="1843" depart="6.42" from="93631240" to="515733343" type="DEFAULT_VEHTYPE" fromTaz="T1_680_1" toTaz="T1_101_2" departLane="free" departSpeed="max"/>
  <trip id="4982" depart="6.48" from="8926666" to="992584129" type="DEFAULT_VEHTYPE" fromTaz="T1_680_1" toTaz="T1_880_1" departLane="free" departSpeed="max"/>
  <trip id="3496" depart="6.53" from="957460911" to="966059358" type="DEFAULT_VEHTYPE" fromTaz="T1_680_1" toTaz="T1_17_1" departLane="free" departSpeed="max"/>
  <trip id="39" depart="6.55" from="8927038#1" to="394385111" type="DEFAULT_VEHTYPE" fromTaz="T1_680_1" toTaz="T1_101_1" departLane="free" departSpeed="max"/>
  <trip id="1844" depart="6.60" from="93631240" to="515733343" type="DEFAULT_VEHTYPE" fromTaz="T1_680_1" toTaz="T1_101_2" departLane="free" departSpeed="max"/>
  <trip id="4983" depart="6.66" from="8926666" to="992584129" type="DEFAULT_VEHTYPE" fromTaz="T1_680_1" toTaz="T1_880_1" departLane="free" departSpeed="max"/>
  <trip id="40" depart="6.72" from="8927038#1" to="394385111" type="DEFAULT_VEHTYPE" fromTaz="T1_680_1" toTaz="T1_101_1" departLane="free" departSpeed="max"/>
  <trip id="3497" depart="6.74" from="957460911" to="966059358" type="DEFAULT_VEHTYPE" fromTaz="T1_680_1" toTaz="T1_17_1" departLane="free" departSpeed="max"/>
  <trip id="1845" depart="6.79" from="93631240" to="515733343" type="DEFAULT_VEHTYPE" fromTaz="T1_680_1" toTaz="T1_101_2" departLane="free" departSpeed="max"/>
  <trip id="4984" depart="6.84" from="8926666" to="992584129" type="DEFAULT_VEHTYPE" fromTaz="T1_680_1" toTaz="T1_880_1" departLane="free" departSpeed="max"/>
  <trip id="41" depart="6.89" from="8927038#1" to="394385111" type="DEFAULT_VEHTYPE" fromTaz="T1_680_1" toTaz="T1_101_1" departLane="free" departSpeed="max"/>
  <trip id="3498" depart="6.95" from="957460911" to="966059358" type="DEFAULT_VEHTYPE" fromTaz="T1_680_1" toTaz="T1_17_1" departLane="free" departSpeed="max"/>
  <trip id="1846" depart="6.97" from="93631240" to="515733343" type="DEFAULT_VEHTYPE" fromTaz="T1_680_1" toTaz="T1_101_2" departLane="free" departSpeed="max"/>
  <trip id="4985" depart="7.03" from="8926666" to="992584129" type="DEFAULT_VEHTYPE" fromTaz="T1_680_1" toTaz="T1_880_1" departLane="free" departSpeed="max"/>
  <trip id="42" depart="7.05" from="8927038#1" to="394385111" type="DEFAULT_VEHTYPE" fromTaz="T1_680_1" toTaz="T1_101_1" departLane="free" departSpeed="max"/>
  <trip id="1847" depart="7.15" from="93631240" to="515733343" type="DEFAULT_VEHTYPE" fromTaz="T1_680_1" toTaz="T1_101_2" departLane="free" departSpeed="max"/>
  <trip id="3499" depart="7.17" from="957460911" to="966059358" type="DEFAULT_VEHTYPE" fromTaz="T1_680_1" toTaz="T1_17_1" departLane="free" departSpeed="max"/>
  <trip id="4986" depart="7.21" from="8926666" to="992584129" type="DEFAULT_VEHTYPE" fromTaz="T1_680_1" toTaz="T1_880_1" departLane="free" departSpeed="max"/>
  <trip id="43" depart="7.22" from="8927038#1" to="394385111" type="DEFAULT_VEHTYPE" fromTaz="T1_680_1" toTaz="T1_101_1" departLane="free" departSpeed="max"/>
  <trip id="1848" depart="7.33" from="93631240" to="515733343" type="DEFAULT_VEHTYPE" fromTaz="T1_680_1" toTaz="T1_101_2" departLane="free" departSpeed="max"/>
  <trip id="3500" depart="7.38" from="957460911" to="966059358" type="DEFAULT_VEHTYPE" fromTaz="T1_680_1" toTaz="T1_17_1" departLane="free" departSpeed="max"/>
  <trip id="44" depart="7.38" from="8927038#1" to="394385111" type="DEFAULT_VEHTYPE" fromTaz="T1_680_1" toTaz="T1_101_1" departLane="free" departSpeed="max"/>
  <trip id="4987" depart="7.39" from="8926666" to="992584129" type="DEFAULT_VEHTYPE" fromTaz="T1_680_1" toTaz="T1_880_1" departLane="free" departSpeed="max"/>
  <trip id="1849" depart="7.51" from="93631240" to="515733343" type="DEFAULT_VEHTYPE" fromTaz="T1_680_1" toTaz="T1_101_2" departLane="free" departSpeed="max"/>
  <trip id="45" depart="7.55" from="8927038#1" to="394385111" type="DEFAULT_VEHTYPE" fromTaz="T1_680_1" toTaz="T1_101_1" departLane="free" departSpeed="max"/>
  <trip id="4988" depart="7.57" from="8926666" to="992584129" type="DEFAULT_VEHTYPE" fromTaz="T1_680_1" toTaz="T1_880_1" departLane="free" departSpeed="max"/>
  <trip id="3501" depart="7.60" from="957460911" to="966059358" type="DEFAULT_VEHTYPE" fromTaz="T1_680_1" toTaz="T1_17_1" departLane="free" departSpeed="max"/>
  <trip id="1850" depart="7.69" from="93631240" to="515733343" type="DEFAULT_VEHTYPE" fromTaz="T1_680_1" toTaz="T1_101_2" departLane="free" departSpeed="max"/>
  <trip id="46" depart="7.72" from="8927038#1" to="394385111" type="DEFAULT_VEHTYPE" fromTaz="T1_680_1" toTaz="T1_101_1" departLane="free" departSpeed="max"/>
  <trip id="4989" depart="7.76" from="8926666" to="992584129" type="DEFAULT_VEHTYPE" fromTaz="T1_680_1" toTaz="T1_880_1" departLane="free" departSpeed="max"/>
  <trip id="3502" depart="7.81" from="957460911" to="966059358" type="DEFAULT_VEHTYPE" fromTaz="T1_680_1" toTaz="T1_17_1" departLane="free" departSpeed="max"/>
  <trip id="1851" depart="7.87" from="93631240" to="515733343" type="DEFAULT_VEHTYPE" fromTaz="T1_680_1" toTaz="T1_101_2" departLane="free" departSpeed="max"/>
  <trip id="47" depart="7.88" from="8927038#1" to="394385111" type="DEFAULT_VEHTYPE" fromTaz="T1_680_1" toTaz="T1_101_1" departLane="free" departSpeed="max"/>
  <trip id="4990" depart="7.94" from="8926666" to="992584129" type="DEFAULT_VEHTYPE" fromTaz="T1_680_1" toTaz="T1_880_1" departLane="free" departSpeed="max"/>
  <trip id="3503" depart="8.02" from="957460911" to="966059358" type="DEFAULT_VEHTYPE" fromTaz="T1_680_1" toTaz="T1_17_1" departLane="free" departSpeed="max"/>
  <trip id="48" depart="8.05" from="8927038#1" to="394385111" type="DEFAULT_VEHTYPE" fromTaz="T1_680_1" toTaz="T1_101_1" departLane="free" departSpeed="max"/>
  <trip id="1852" depart="8.05" from="93631240" to="515733343" type="DEFAULT_VEHTYPE" fromTaz="T1_680_1" toTaz="T1_101_2" departLane="free" departSpeed="max"/>
  <trip id="4991" depart="8.12" from="8926666" to="992584129" type="DEFAULT_VEHTYPE" fromTaz="T1_680_1" toTaz="T1_880_1" departLane="free" departSpeed="max"/>
  <trip id="49" depart="8.21" from="8927038#1" to="394385111" type="DEFAULT_VEHTYPE" fromTaz="T1_680_1" toTaz="T1_101_1" departLane="free" departSpeed="max"/>
  <trip id="1853" depart="8.23" from="93631240" to="515733343" type="DEFAULT_VEHTYPE" fromTaz="T1_680_1" toTaz="T1_101_2" departLane="free" departSpeed="max"/>
  <trip id="3504" depart="8.24" from="957460911" to="966059358" type="DEFAULT_VEHTYPE" fromTaz="T1_680_1" toTaz="T1_17_1" departLane="free" departSpeed="max"/>
  <trip id="4992" depart="8.30" from="8926666" to="992584129" type="DEFAULT_VEHTYPE" fromTaz="T1_680_1" toTaz="T1_880_1" departLane="free" departSpeed="max"/>
  <trip id="50" depart="8.38" from="8927038#1" to="394385111" type="DEFAULT_VEHTYPE" fromTaz="T1_680_1" toTaz="T1_101_1" departLane="free" departSpeed="max"/>
  <trip id="1854" depart="8.41" from="93631240" to="515733343" type="DEFAULT_VEHTYPE" fromTaz="T1_680_1" toTaz="T1_101_2" departLane="free" departSpeed="max"/>
  <trip id="3505" depart="8.45" from="957460911" to="966059358" type="DEFAULT_VEHTYPE" fromTaz="T1_680_1" toTaz="T1_17_1" departLane="free" departSpeed="max"/>
  <trip id="4993" depart="8.49" from="8926666" to="992584129" type="DEFAULT_VEHTYPE" fromTaz="T1_680_1" toTaz="T1_880_1" departLane="free" departSpeed="max"/>