<?xml version='1.0' encoding='utf-8'?>
<routes>
  <trip id="906" depart="0.08" from="93631240" to="515733343" type="DEFAULT_VEHTYPE" fromTaz="T1_680_1" toTaz="T1_101_2" departLane="free" departSpeed="max"/>
  <trip id="4518" depart="0.10" from="8926666" to="992584129" type="DEFAULT_VEHTYPE" fromTaz="T1_680_1" toTaz="T1_880_1" departLane="free" departSpeed="max"/>
  <trip id="2803" depart="0.12" from="957460911" to="966059358" type="DEFAULT_VEHTYPE" fromTaz="T1_680_1" toTaz="T1_17_1" departLane="free" departSpeed="max"/>
  <trip id="0" depart="0.17" from="8927038#1" to="394385111" type="DEFAULT_VEHTYPE" fromTaz="T1_680_1" toTaz="T1_101_1" departLane="free" departSpeed="max"/>
  <trip id="907" depart="0.24" from="93631240" to="515733343" type="DEFAULT_VEHTYPE" fromTaz="T1_680_1" toTaz="T1_101_2" departLane="free" departSpeed="max"/>
  <trip id="4519" depart="0.30" from="8926666" to="992584129" type="DEFAULT_VEHTYPE" fromTaz="T1_680_1" toTaz="T1_880_1" departLane="free" departSpeed="max"/>
  <trip id="4020" depart="0.30" from="93631240" to="4786685" type="DEFAULT_VEHTYPE" fromTaz="T1_680_1" toTaz="T1_280_1" departLane="free" departSpeed="max"/>
  <trip id="2804" depart="0.37" from="957460911" to="966059358" type="DEFAULT_VEHTYPE" fromTaz="T1_680_1" toTaz="T1_17_1" departLane="free" departSpeed="max"/>
  <trip id="908" depart="0.40" from="93631240" to="515733343" type="DEFAULT_VEHTYPE" fromTaz="T1_680_1" toTaz="T1_101_2" departLane="free" departSpeed="max"/>
  <trip id="1" depart="0.50" from="8927038#1" to="394385111" type="DEFAULT_VEHTYPE" fromTaz="T1_680_1" toTaz="T1_101_1" departLane="free" departSpeed="max"/>
  <trip id="4520" depart="0.51" from="8926666" to="992584129" type="DEFAULT_VEHTYPE" fromTaz="T1_680_1" toTaz="T1_880_1" departLane="free" departSpeed="max"/>
  <trip id="909" depart="0.55" from="93631240" to="515733343" type="DEFAULT_VEHTYPE" fromTaz="T1_680_1" toTaz="T1_101_2" departLane="free" departSpeed="max"/>
  <trip id="2805" depart="0.62" from="957460911" to="966059358" type="DEFAULT_VEHTYPE" fromTaz="T1_680_1" toTaz="T1_17_1" departLane="free" departSpeed="max"/>
  <trip id="910" depart="0.71" from="93631240" to="515733343" type="DEFAULT_VEHTYPE" fromTaz="T1_680_1" toTaz="T1_101_2" departLane="free" departSpeed="max"/>
  <trip id="4521" depart="0.71" from="8926666" to="992584129" type="DEFAULT_VEHTYPE" fromTaz="T1_680_1" toTaz="T1_880_1" departLane="free" departSpeed="max"/>
  <trip id="2" depart="0.83" from="8927038#1" to="394385111" type="DEFAULT_VEHTYPE" fromTaz="T1_680_1" toTaz="T1_101_1" departLane="free" departSpeed="max"/>
  <trip id="2806" depart="0.86" from="957460911" to="966059358" type="DEFAULT_VEHTYPE" fromTaz="T1_680_1" toTaz="T1_17_1" departLane="free" departSpeed="max"/>
  <trip id="911" depart="0.87" from="93631240" to="515733343" type="DEFAULT_VEHTYPE" fromTaz="T1_680_1" toTaz="T1_101_2" departLane="free" departSpeed="max"/>
  <trip id="4021" depart="0.90" from="93631240" to="4786685" type="DEFAULT_VEHTYPE" fromTaz="T1_680_1" toTaz="T1_280_1" departLane="free" departSpeed="max"/>
  <trip id="4522" depart="0.91" from="8926666" to="992584129" type="DEFAULT_VEHTYPE" fromTaz="T1_680_1" toTaz="T1_880_1" departLane="free" departSpeed="max"/>
  <trip id="912" depart="1.03" from="93631240" to="515733343" type="DEFAULT_VEHTYPE" fromTaz="T1_680_1" toTaz="T1_101_2" departLane="free" departSpeed="max"/>
  <trip id="2807" depart="1.11" from="957460911" to="966059358" type="DEFAULT_VEHTYPE" fromTaz="T1_680_1" toTaz="T1_17_1" departLane="free" departSpeed="max"/>
  <trip id="4523" depart="1.11" from="8926666" to="992584129" type="DEFAULT_VEHTYPE" fromTaz="T1_680_1" toTaz="T1_880_1" departLane="free" departSpeed="max"/>
  <trip id="3" depart="1.16" from="8927038#1" to="394385111" type="DEFAULT_VEHTYPE" fromTaz="T1_680_1" toTaz="T1_101_1" departLane="free" departSpeed="max"/>
  <trip id="913" depart="1.19" from="93631240" to="515733343" type="DEFAULT_VEHTYPE" fromTaz="T1_680_1" toTaz="T1_101_2" departLane="free" departSpeed="max"/>
  <trip id="4524" depart="1.32" from="8926666" to="992584129" type="DEFAULT_VEHTYPE" fromTaz="T1_680_1" toTaz="T1_880_1" departLane="free" departSpeed="max"/>
  <trip id="914" depart="1.34" from="93631240" to="515733343" type="DEFAULT_VEHTYPE" fromTaz="T1_680_1" toTaz="T1_101_2" departLane="free" departSpeed="max"/>
  <trip id="2808" depart="1.36" from="957460911" to="966059358" type="DEFAULT_VEHTYPE" fromTaz="T1_680_1" toTaz="T1_17_1" departLane="free" departSpeed="max"/>
  <trip id="4" depart="1.49" from="8927038#1" to="394385111" type="DEFAULT_VEHTYPE" fromTaz="T1_680_1" toTaz="T1_101_1" departLane="free" departSpeed="max"/>
  <trip id="915" depart="1.50" from="93631240" to="515733343" type="DEFAULT_VEHTYPE" fromTaz="T1_680_1" toTaz="T1_101_2" departLane="free" departSpeed="max"/>
  <trip id="4022" depart="1.51" from="93631240" to="4786685" type="DEFAULT_VEHTYPE" fromTaz="T1_680_1" toTaz="T1_280_1" departLane="free" departSpeed="max"/>
  <trip id="4525" depart="1.52" from="8926666" to="992584129" type="DEFAULT_VEHTYPE" fromTaz="T1_680_1" toTaz="T1_880_1" departLane="free" departSpeed="max"/>
  <trip id="2809" depart="1.60" from="957460911" to="966059358" type="DEFAULT_VEHTYPE" fromTaz="T1_680_1" toTaz="T1_17_1" departLane="free" departSpeed="max"/>
  <trip id="916" depart="1.66" from="93631240" to="515733343" type="DEFAULT_VEHTYPE" fromTaz="T1_680_1" toTaz="T1_101_2" departLane="free" departSpeed="max"/>
  <trip id="4526" depart="1.72" from="8926666" to="992584129" type="DEFAULT_VEHTYPE" fromTaz="T1_680_1" toTaz="T1_880_1" departLane="free" departSpeed="max"/>
  <trip id="917" depart="1.82" from="93631240" to="515733343" type="DEFAULT_VEHTYPE" fromTaz="T1_680_1" toTaz="T1_101_2" departLane="free" departSpeed="max"/>
  <trip id="5" depart="1.82" from="8927038#1" to="394385111" type="DEFAULT_VEHTYPE" fromTaz="T1_680_1" toTaz="T1_101_1" departLane="free" departSpeed="max"/>
  <trip id="2810" depart="1.85" from="957460911" to="966059358" type="DEFAULT_VEHTYPE" fromTaz="T1_680_1" toTaz="T1_17_1" departLane="free" departSpeed="max"/>
  <trip id="4527" depart="1.92" from="8926666" to="992584129" type="DEFAULT_VEHTYPE" fromTaz="T1_680_1" toTaz="T1_880_1" departLane="free" departSpeed="max"/>
  <trip id="918" depart="1.98" from="93631240" to="515733343" type="DEFAULT_VEHTYPE" fromTaz="T1_680_1" toTaz="T1_101_2" departLane="free" departSpeed="max"/>
  <trip id="2811" depart="2.10" from="957460911" to="966059358" type="DEFAULT_VEHTYPE" fromTaz="T1_680_1" toTaz="T1_17_1" departLane="free" departSpeed="max"/>
  <trip id="4023" depart="2.11" from="93631240" to="4786685" type="DEFAULT_VEHTYPE" fromTaz="T1_680_1" toTaz="T1_280_1" departLane="free" departSpeed="max"/>
  <trip id="4528" depart="2.13" from="8926666" to="992584129" type="DEFAULT_VEHTYPE" fromTaz="T1_680_1" toTaz="T1_880_1" departLane="free" departSpeed="max"/>
  <trip id="919" depart="2.13" from="93631240" to="515733343" type="DEFAULT_VEHTYPE" fromTaz="T1_680_1" toTaz="T1_101_2" departLane="free" departSpeed="max"/>
  <trip id="6" depart="2.15" from="8927038#1" to="394385111" type="DEFAULT_VEHTYPE" fromTaz="T1_680_1" toTaz="T1_101_1" departLane="free" departSpeed="max"/>
  <trip id="920" depart="2.29" from="93631240" to="515733343" type="DEFAULT_VEHTYPE" fromTaz="T1_680_1" toTaz="T1_101_2" departLane="free" departSpeed="max"/>
  <trip id="4529" depart="2.33" from="8926666" to="992584129" type="DEFAULT_VEHTYPE" fromTaz="T1_680_1" toTaz="T1_880_1" departLane="free" departSpeed="max"/>
  <trip id="2812" depart="2.34" from="957460911" to="966059358" type="DEFAULT_VEHTYPE" fromTaz="T1_680_1" toTaz="T1_17_1" departLane="free" departSpeed="max"/>
  <trip id="921" depart="2.45" from="93631240" to="515733343" type="DEFAULT_VEHTYPE" fromTaz="T1_680_1" toTaz="T1_101_2" departLane="free" departSpeed="max"/>
  <trip id="7" depart="2.48" from="8927038#1" to="394385111" type="DEFAULT_VEHTYPE" fromTaz="T1_680_1" toTaz="T1_101_1" departLane="free" departSpeed="max"/>
  <trip id="4530" depart="2.53" from="8926666" to="992584129" type="DEFAULT_VEHTYPE" fromTaz="T1_680_1" toTaz="T1_880_1" departLane="free" departSpeed="max"/>
  <trip id="2813" depart="2.59" from="957460911" to="966059358" type="DEFAULT_VEHTYPE" fromTaz="T1_680_1" toTaz="T1_17_1" departLane="free" departSpeed="max"/>
  <trip id="922" depart="2.61" from="93631240" to="515733343" type="DEFAULT_VEHTYPE" fromTaz="T1_680_1" toTaz="T1_101_2" departLane="free" departSpeed="max"/>
  <trip id="4024" depart="2.71" from="93631240" to="4786685" type="DEFAULT_VEHTYPE" fromTaz="T1_680_1" toTaz="T1_280_1" departLane="free" departSpeed="max"/>
  <trip id="4531" depart="2.73" from="8926666" to="992584129" type="DEFAULT_VEHTYPE" fromTaz="T1_680_1" toTaz="T1_880_1" departLane="free" departSpeed="max"/>
  <trip id="923" depart="2.77" from="93631240" to="515733343" type="DEFAULT_VEHTYPE" fromTaz="T1_680_1" toTaz="T1_101_2" departLane="free" departSpeed="max"/>
  <trip id="8" depart="2.81" from="8927038#1" to="394385111" type="DEFAULT_VEHTYPE" fromTaz="T1_680_1" toTaz="T1_101_1" departLane="free" departSpeed="max"/>
  <trip id="2814" depart="2.83" from="957460911" to="966059358" type="DEFAULT_VEHTYPE" fromTaz="T1_680_1" toTaz="T1_17_1" departLane="free" departSpeed="max"/>
  <trip id="924" depart="2.93" from="93631240" to="515733343" type="DEFAULT_VEHTYPE" fromTaz="T1_680_1" toTaz="T1_101_2" departLane="free" departSpeed="max"/>
  <trip id="4532" depart="2.94" from="8926666" to="992584129" type="DEFAULT_VEHTYPE" fromTaz="T1_680_1" toTaz="T1_880_1" departLane="free" departSpeed="max"/>
  <trip id="2815" depart="3.08" from="957460911" to="966059358" type="DEFAULT_VEHTYPE" fromTaz="T1_680_1" toTaz="T1_17_1" departLane="free" departSpeed="max"/>
  <trip id="925" depart="3.08" from="93631240" to="515733343" type="DEFAULT_VEHTYPE" fromTaz="T1_680_1" toTaz="T1_101_2" departLane="free" departSpeed="max"/>
  <trip id="4533" depart="3.14" from="8926666" to="992584129" type="DEFAULT_VEHTYPE" fromTaz="T1_680_1" toTaz="T1_880_1" departLane="free" departSpeed="max"/>
  <trip id="9" depart="3.15" from="8927038#1" to="394385111" type="DEFAULT_VEHTYPE" fromTaz="T1_680_1" toTaz="T1_101_1" departLane="free" departSpeed="max"/>
  <trip id="926" depart="3.24" from="93631240" to="515733343" type="DEFAULT_VEHTYPE" fromTaz="T1_680_1" toTaz="T1_101_2" departLane="free" departSpeed="max"/>
  <trip id="4025" depart="3.31" from="93631240" to="4786685" type="DEFAULT_VEHTYPE" fromTaz="T1_680_1" toTaz="T1_280_1" departLane="free" departSpeed="max"/>
  <trip id="2816" depart="3.33" from="957460911" to="966059358" type="DEFAULT_VEHTYPE" fromTaz="T1_680_1" toTaz="T1_17_1" departLane="free" departSpeed="max"/>
  <trip id="4534" depart="3.34" from="8926666" to="992584129" type="DEFAULT_VEHTYPE" fromTaz="T1_680_1" toTaz="T1_880_1" departLane="free" departSpeed="max"/>
  <trip id="927" depart="3.40" from="93631240" to="515733343" type="DEFAULT_VEHTYPE" fromTaz="T1_680_1" toTaz="T1_101_2" departLane="free" departSpeed="max"/>
  <trip id="10" depart="3.48" from="8927038#1" to="394385111" type="DEFAULT_VEHTYPE" fromTaz="T1_680_1" toTaz="T1_101_1" departLane="free" departSpeed="max"/>
  <trip id="4535" depart="3.54" from="8926666" to="992584129" type="DEFAULT_VEHTYPE" fromTaz="T1_680_1" toTaz="T1_880_1" departLane="free" departSpeed="max"/>
  <trip id="928" depart="3.56" from="93631240" to="515733343" type="DEFAULT_VEHTYPE" fromTaz="T1_680_1" toTaz="T1_101_2" departLane="free" departSpeed="max"/>
  <trip id="2817" depart="3.57" from="957460911" to="966059358" type="DEFAULT_VEHTYPE" fromTaz="T1_680_1" toTaz="T1_17_1" departLane="free" departSpeed="max"/>
  <trip id="929" depart="3.72" from="93631240" to="515733343" type="DEFAULT_VEHTYPE" fromTaz="T1_680_1" toTaz="T1_101_2" departLane="free" departSpeed="max"/>
  <trip id="4536" depart="3.75" from="8926666" to="992584129" type="DEFAULT_VEHTYPE" fromTaz="T1_680_1" toTaz="T1_880_1" departLane="free" departSpeed="max"/>
  <trip id="11" depart="3.81" from="8927038#1" to="394385111" type="DEFAULT_VEHTYPE" fromTaz="T1_680_1" toTaz="T1_101_1" departLane="free" departSpeed="max"/>
  <trip id="2818" depart="3.82" from="957460911" to="966059358" type="DEFAULT_VEHTYPE" fromTaz="T1_680_1" toTaz="T1_17_1" departLane="free" departSpeed="max"/>
  <trip id="930" depart="3.87" from="93631240" to="515733343" type="DEFAULT_VEHTYPE" fromTaz="T1_680_1" toTaz="T1_101_2" departLane="free" departSpeed="max"/>
  <trip id="4026" depart="3.92" from="93631240" to="4786685" type="DEFAULT_VEHTYPE" fromTaz="T1_680_1" toTaz="T1_280_1" departLane="free" departSpeed="max"/>
  <trip id="4537" depart="3.95" from="8926666" to="992584129" type="DEFAULT_VEHTYPE" fromTaz="T1_680_1" toTaz="T1_880_1" departLane="free" departSpeed="max"/>
  <trip id="931" depart="4.03" from="93631240" to="515733343" type="DEFAULT_VEHTYPE" fromTaz="T1_680_1" toTaz="T1_101_2" departLane="free" departSpeed="max"/>
  <trip id="2819" depart="4.07" from="957460911" to="966059358" type="DEFAULT_VEHTYPE" fromTaz="T1_680_1" toTaz="T1_17_1" departLane="free" departSpeed="max"/>
  <trip id="12" depart="4.14" from="8927038#1" to="394385111" type="DEFAULT_VEHTYPE" fromTaz="T1_680_1" toTaz="T1_101_1" departLane="free" departSpeed="max"/>
  <trip id="4538" depart="4.15" from="8926666" to="992584129" type="DEFAULT_VEHTYPE" fromTaz="T1_680_1" toTaz="T1_880_1" departLane="free" departSpeed="max"/>
  <trip id="932" depart="4.19" from="93631240" to="515733343" type="DEFAULT_VEHTYPE" fromTaz="T1_680_1" toTaz="T1_101_2" departLane="free" departSpeed="max"/>
  <trip id="2820" depart="4.31" from="957460911" to="966059358" type="DEFAULT_VEHTYPE" fromTaz="T1_680_1" toTaz="T1_17_1" departLane="free" departSpeed="max"/>
  <trip id="933" depart="4.35" from="93631240" to="515733343" type="DEFAULT_VEHTYPE" fromTaz="T1_680_1" toTaz="T1_101_2" departLane="free" departSpeed="max"/>
  <trip id="4539" depart="4.36" from="8926666" to="992584129" type="DEFAULT_VEHTYPE" fromTaz="T1_680_1" toTaz="T1_880_1" departLane="free" departSpeed="max"/>
  <trip id="13" depart="4.47" from="8927038#1" to="394385111" type="DEFAULT_VEHTYPE" fromTaz="T1_680_1" toTaz="T1_101_1" departLane="free" departSpeed="max"/>
  <trip id="934" depart="4.51" from="93631240" to="515733343" type="DEFAULT_VEHTYPE" fromTaz="T1_680_1" toTaz="T1_101_2" departLane="free" departSpeed="max"/>
  <trip id="4027" depart="4.52" from="93631240" to="4786685" type="DEFAULT_VEHTYPE" fromTaz="T1_680_1" toTaz="T1_280_1" departLane="free" departSpeed="max"/>
  <trip id="4540" depart="4.56" from="8926666" to="992584129" type="DEFAULT_VEHTYPE" fromTaz="T1_680_1" toTaz="T1_880_1" departLane="free" departSpeed="max"/>
  <trip id="2821" depart="4.56" from="957460911" to="966059358" type="DEFAULT_VEHTYPE" fromTaz="T1_680_1" toTaz="T1_17_1" departLane="free" departSpeed="max"/>
  <trip id="935" depart="4.67" from="93631240" to="515733343" type="DEFAULT_VEHTYPE" fromTaz="T1_680_1" toTaz="T1_101_2" departLane="free" departSpeed="max"/>
  <trip id="4541" depart="4.76" from="8926666" to="992584129" type="DEFAULT_VEHTYPE" fromTaz="T1_680_1" toTaz="T1_880_1" departLane="free" departSpeed="max"/>
  <trip id="14" depart="4.80" from="8927038#1" to="394385111" type="DEFAULT_VEHTYPE" fromTaz="T1_680_1" toTaz="T1_101_1" departLane="free" departSpeed="max"/>
  <trip id="2822" depart="4.81" from="957460911" to="966059358" type="DEFAULT_VEHTYPE" fromTaz="T1_680_1" toTaz="T1_17_1" departLane="free" departSpeed="max"/>
  <trip id="936" depart="4.82" from="93631240" to="515733343" type="DEFAULT_VEHTYPE" fromTaz="T1_680_1" toTaz="T1_101_2" departLane="free" departSpeed="max"/>
  <trip id="4542" depart="4.96" from="8926666" to="992584129" type="DEFAULT_VEHTYPE" fromTaz="T1_680_1" toTaz="T1_880_1" departLane="free" departSpeed="max"/>
  <trip id="937" depart="4.98" from="93631240" to="515733343" type="DEFAULT_VEHTYPE" fromTaz="T1_680_1" toTaz="T1_101_2" departLane="free" departSpeed="max"/>
  <trip id="2823" depart="5.05" from="957460911" to="966059358" type="DEFAULT_VEHTYPE" fromTaz="T1_680_1" toTaz="T1_17_1" departLane="free" departSpeed="max"/>
  <trip id="4028" depart="5.12" from="93631240" to="4786685" type="DEFAULT_VEHTYPE" fromTaz="T1_680_1" toTaz="T1_280_1" departLane="free" departSpeed="max"/>
  <trip id="15" depart="5.13" from="8927038#1" to="394385111" type="DEFAULT_VEHTYPE" fromTaz="T1_680_1" toTaz="T1_101_1" departLane="free" departSpeed="max"/>
  <trip id="938" depart="5.14" from="93631240" to="515733343" type="DEFAULT_VEHTYPE" fromTaz="T1_680_1" toTaz="T1_101_2" departLane="free" departSpeed="max"/>
  <trip id="4543" depart="5.17" from="8926666" to="992584129" type="DEFAULT_VEHTYPE" fromTaz="T1_680_1" toTaz="T1_880_1" departLane="free" departSpeed="max"/>
  <trip id="2824" depart="5.30" from="957460911" to="966059358" type="DEFAULT_VEHTYPE" fromTaz="T1_680_1" toTaz="T1_17_1" departLane="free" departSpeed="max"/>
  <trip id="939" depart="5.30" from="93631240" to="515733343" type="DEFAULT_VEHTYPE" fromTaz="T1_680_1" toTaz="T1_101_2" departLane="free" departSpeed="max"/>
  <trip id="4544" depart="5.37" from="8926666" to="992584129" type="DEFAULT_VEHTYPE" fromTaz="T1_680_1" toTaz="T1_880_1" departLane="free" departSpeed="max"/>
  <trip id="940" depart="5.46" from="93631240" to="515733343" type="DEFAULT_VEHTYPE" fromTaz="T1_680_1" toTaz="T1_101_2" departLane="free" departSpeed="max"/>
  <trip id="16" depart="5.46" from="8927038#1" to="394385111" type="DEFAULT_VEHTYPE" fromTaz="T1_680_1" toTaz="T1_101_1" departLane="free" departSpeed="max"/>
  <trip id="2825" depart="5.55" from="957460911" to="966059358" type="DEFAULT_VEHTYPE" fromTaz="T1_680_1" toTaz="T1_17_1" departLane="free" departSpeed="max"/>
  <trip id="4545" depart="5.57" from="8926666" to="992584129" type="DEFAULT_VEHTYPE" fromTaz="T1_680_1" toTaz="T1_880_1" departLane="free" departSpeed="max"/>
  <trip id="941" depart="5.61" from="93631240" to="515733343" type="DEFAULT_VEHTYPE" fromTaz="T1_680_1" toTaz="T1_101_2" departLane="free" departSpeed="max"/>
  <trip id="4029" depart="5.72" from="93631240" to="4786685" type="DEFAULT_VEHTYPE" fromTaz="T1_680_1" toTaz="T1_280_1" departLane="free" departSpeed="max"/>
  <trip id="942" depart="5.77" from="93631240" to="515733343" type="DEFAULT_VEHTYPE" fromTaz="T1_680_1" toTaz="T1_101_2" departLane="free" departSpeed="max"/>
  <trip id="4546" depart="5.77" from="8926666" to="992584129" type="DEFAULT_VEHTYPE" fromTaz="T1_680_1" toTaz="T1_880_1" departLane="free" departSpeed="max"/>
  <trip id="2826" depart="5.79" from="957460911" to="966059358" type="DEFAULT_VEHTYPE" fromTaz="T1_680_1" toTaz="T1_17_1" departLane="free" departSpeed="max"/>
  <trip id="17" depart="5.79" from="8927038#1" to="394385111" type="DEFAULT_VEHTYPE" fromTaz="T1_680_1" toTaz="T1_101_1" departLane="free" departSpeed="max"/>
  <trip id="943" depart="5.93" from="93631240" to="515733343" type="DEFAULT_VEHTYPE" fromTaz="T1_680_1" toTaz="T1_101_2" departLane="free" departSpeed="max"/>
  <trip id="4547" depart="5.98" from="8926666" to="992584129" type="DEFAULT_VEHTYPE" fromTaz="T1_680_1" toTaz="T1_880_1" departLane="free" departSpeed="max"/>
  <trip id="2827" depart="6.04" from="957460911" to="966059358" type="DEFAULT_VEHTYPE" fromTaz="T1_680_1" toTaz="T1_17_1" departLane="free" departSpeed="max"/>
  <trip id="944" depart="6.09" from="93631240" to="515733343" type="DEFAULT_VEHTYPE" fromTaz="T1_680_1" toTaz="T1_101_2" departLane="free" departSpeed="max"/>
  <trip id="18" depart="6.13" from="8927038#1" to="394385111" type="DEFAULT_VEHTYPE" fromTaz="T1_680_1" toTaz="T1_101_1" departLane="free" departSpeed="max"/>
  <trip id="4548" depart="6.18" from="8926666" to="992584129" type="DEFAULT_VEHTYPE" fromTaz="T1_680_1" toTaz="T1_880_1" departLane="free" departSpeed="max"/>
  <trip id="945" depart="6.25" from="93631240" to="515733343" type="DEFAULT_VEHTYPE" fromTaz="T1_680_1" toTaz="T1_101_2" departLane="free" departSpeed="max"/>
  <trip id="2828" depart="6.29" from="957460911" to="966059358" type="DEFAULT_VEHTYPE" fromTaz="T1_680_1" toTaz="T1_17_1" departLane="free" departSpeed="max"/>
  <trip id="4030" depart="6.33" from="93631240" to="4786685" type="DEFAULT_VEHTYPE" fromTaz="T1_680_1" toTaz="T1_280_1" departLane="free" departSpeed="max"/>
  <trip id="4549" depart="6.38" from="8926666" to="992584129" type="DEFAULT_VEHTYPE" fromTaz="T1_680_1" toTaz="T1_880_1" departLane="free" departSpeed="max"/>
  <trip id="946" depart="6.40" from="93631240" to="515733343" type="DEFAULT_VEHTYPE" fromTaz="T1_680_1" toTaz="T1_101_2" departLane="free" departSpeed="max"/>
  <trip id="19" depart="6.46" from="8927038#1" to="394385111" type="DEFAULT_VEHTYPE" fromTaz="T1_680_1" toTaz="T1_101_1" departLane="free" departSpeed="max"/>
  <trip id="2829" depart="6.53" from="957460911" to="966059358" type="DEFAULT_VEHTYPE" fromTaz="T1_680_1" toTaz="T1_17_1" departLane="free" departSpeed="max"/>
  <trip id="947" depart="6.56" from="93631240" to="515733343" type="DEFAULT_VEHTYPE" fromTaz="T1_680_1" toTaz="T1_101_2" departLane="free" departSpeed="max"/>
  <trip id="4550" depart="6.58" from="8926666" to="992584129" type="DEFAULT_VEHTYPE" fromTaz="T1_680_1" toTaz="T1_880_1" departLane="free" departSpeed="max"/>
  <trip id="948" depart="6.72" from="93631240" to="515733343" type="DEFAULT_VEHTYPE" fromTaz="T1_680_1" toTaz="T1_101_2" departLane="free" departSpeed="max"/>
  <trip id="2830" depart="6.78" from="957460911" to="966059358" type="DEFAULT_VEHTYPE" fromTaz="T1_680_1" toTaz="T1_17_1" departLane="free" departSpeed="max"/>
  <trip id="4551" depart="6.79" from="8926666" to="992584129" type="DEFAULT_VEHTYPE" fromTaz="T1_680_1" toTaz="T1_880_1" departLane="free" departSpeed="max"/>
  <trip id="20" depart="6.79" from="8927038#1" to="394385111" type="DEFAULT_VEHTYPE" fromTaz="T1_680_1" toTaz="T1_101_1" departLane="free" departSpeed="max"/>
  <trip id="949" depart="6.88" from="93631240" to="515733343" type="DEFAULT_VEHTYPE" fromTaz="T1_680_1" toTaz="T1_101_2" departLane="free" departSpeed="max"/>
  <trip id="4031" depart="6.93" from="93631240" to="4786685" type="DEFAULT_VEHTYPE" fromTaz="T1_680_1" toTaz="T1_280_1" departLane="free" departSpeed="max"/>
  <trip id="4552" depart="6.99" from="8926666" to="992584129" type="DEFAULT_VEHTYPE" fromTaz="T1_680_1" toTaz="T1_880_1" departLane="free" departSpeed="max"/>
  <trip id="2831" depart="7.03" from="957460911" to="966059358" type="DEFAULT_VEHTYPE" fromTaz="T1_680_1" toTaz="T1_17_1" departLane="free" departSpeed="max"/>
  <trip id="950" depart="7.04" from="93631240" to="515733343" type="DEFAULT_VEHTYPE" fromTaz="T1_680_1" toTaz="T1_101_2" departLane="free" departSpeed="max"/>
  <trip id="21" depart="7.12" from="8927038#1" to="394385111" type="DEFAULT_VEHTYPE" fromTaz="T1_680_1" toTaz="T1_101_1" departLane="free" departSpeed="max"/>
  <trip id="4553" depart="7.19" from="8926666" to="992584129" type="DEFAULT_VEHTYPE" fromTaz="T1_680_1" toTaz="T1_880_1" departLane="free" departSpeed="max"/>
  <trip id="951" depart="7.20" from="93631240" to="515733343" type="DEFAULT_VEHTYPE" fromTaz="T1_680_1" toTaz="T1_101_2" departLane="free" departSpeed="max"/>
  <trip id="2832" depart="7.27" from="957460911" to="966059358" type="DEFAULT_VEHTYPE" fromTaz="T1_680_1" toTaz="T1_17_1" departLane="free" departSpeed="max"/>
  <trip id="952" depart="7.35" from="93631240" to="515733343" type="DEFAULT_VEHTYPE" fromTaz="T1_680_1" toTaz="T1_101_2" departLane="free" departSpeed="max"/>
  <trip id="4554" depart="7.39" from="8926666" to="992584129" type="DEFAULT_VEHTYPE" fromTaz="T1_680_1" toTaz="T1_880_1" departLane="free" departSpeed="max"/>
  <trip id="22" depart="7.45" from="8927038#1" to="394385111" type="DEFAULT_VEHTYPE" fromTaz="T1_680_1" toTaz="T1_101_1" departLane="free" departSpeed="max"/>
  <trip id="953" depart="7.51" from="93631240" to="515733343" type="DEFAULT_VEHTYPE" fromTaz="T1_680_1" toTaz="T1_101_2" departLane="free" departSpeed="max"/>
  <trip id="2833" depart="7.52" from="957460911" to="966059358" type="DEFAULT_VEHTYPE" fromTaz="T1_680_1" toTaz="T1_17_1" departLane="free" departSpeed="max"/>
  <trip id="4032" depart="7.53" from="93631240" to="4786685" type="DEFAULT_VEHTYPE" fromTaz="T1_680_1" toTaz="T1_280_1" departLane="free" departSpeed="max"/>
  <trip id="4555" depart="7.60" from="8926666" to="992584129" type="DEFAULT_VEHTYPE" fromTaz="T1_680_1" toTaz="T1_880_1" departLane="free" departSpeed="max"/>
  <trip id="954" depart="7.67" from="93631240" to="515733343" type="DEFAULT_VEHTYPE" fromTaz="T1_680_1" toTaz="T1_101_2" departLane="free" departSpeed="max"/>
  <trip id="2834" depart="7.76" from="957460911" to="966059358" type="DEFAULT_VEHTYPE" fromTaz="T1_680_1" toTaz="T1_17_1" departLane="free" departSpeed="max"/>
  <trip id="23" depart="7.78" from="8927038#1" to="394385111" type="DEFAULT_VEHTYPE" fromTaz="T1_680_1" toTaz="T1_101_1" departLane="free" departSpeed="max"/>
  <trip id="4556" depart="7.80" from="8926666" to="992584129" type="DEFAULT_VEHTYPE" fromTaz="T1_680_1" toTaz="T1_880_1" departLane="free" departSpeed="max"/>
  <trip id="955" depart="7.83" from="93631240" to="515733343" type="DEFAULT_VEHTYPE" fromTaz="T1_680_1" toTaz="T1_101_2" departLane="free" departSpeed="max"/>
  <trip id="956" depart="7.99" from="93631240" to="515733343" type="DEFAULT_VEHTYPE" fromTaz="T1_680_1" toTaz="T1_101_2" departLane="free" departSpeed="max"/>
  <trip id="4557" depart="8.00" from="8926666" to="992584129" type="DEFAULT_VEHTYPE" fromTaz="T1_680_1" toTaz="T1_880_1" departLane="free" departSpeed="max"/>
  <trip id="2835" depart="8.01" from="957460911" to="966059358" type="DEFAULT_VEHTYPE" fromTaz="T1_680_1" toTaz="T1_17_1" departLane="free" departSpeed="max"/>
  <trip id="24" depart="8.11" from="8927038#1" to="394385111" type="DEFAULT_VEHTYPE" fromTaz="T1_680_1" toTaz="T1_101_1" departLane="free" departSpeed="max"/>
  <trip id="4033" depart="8.13" from="93631240" to="4786685" type="DEFAULT_VEHTYPE" fromTaz="T1_680_1" toTaz="T1_280_1" departLane="free" departSpeed="max"/>
  <trip id="957" depart="8.14" from="93631240" to="515733343" type="DEFAULT_VEHTYPE" fromTaz="T1_680_1" toTaz="T1_101_2" departLane="free" departSpeed="max"/>
  <trip id="4558" depart="8.20" from="8926666" to="992584129" type="DEFAULT_VEHTYPE" fromTaz="T1_680_1" toTaz="T1_880_1" departLane="free" departSpeed="max"/>
  <trip id="2836" depart="8.26" from="957460911" to="966059358" type="DEFAULT_VEHTYPE" fromTaz="T1_680_1" toTaz="T1_17_1" departLane="free" departSpeed="max"/>
  <trip id="958" depart="8.30" from="93631240" to="515733343" type="DEFAULT_VEHTYPE" fromTaz="T1_680_1" toTaz="T1_101_2" departLane="free" departSpeed="max"/>
  <trip id="4559" depart="8.41" from="8926666" to="992584129" type="DEFAULT_VEHTYPE" fromTaz="T1_680_1" toTaz="T1_880_1" departLane="free" departSpeed="max"/>
  <trip id="25" depart="8.44" from="8927038#1" to="394385111" type="DEFAULT_VEHTYPE" fromTaz="T1_680_1" toTaz="T1_101_1" departLane="free" departSpeed="max"/>
  <trip id="959" depart="8.46" from="93631240" to="515733343" type="DEFAULT_VEHTYPE" fromTaz="T1_680_1" toTaz="T1_101_2" departLane="free" departSpeed="max"/>
  <trip id="2837" depart="8.50" from="957460911" to="966059358" type="DEFAULT_VEHTYPE" fromTaz="T1_680_1" toTaz="T1_17_1" departLane="free" departSpeed="max"/>
  <trip id="4560" depart="8.61" from="8926666" to="992584129" type="DEFAULT_VEHTYPE" fromTaz="T1_680_1" toTaz="T1_880_1" departLane="free" departSpeed="max"/>
  <trip id="960" depart="8.62" from="93631240" to="515733343" type="DEFAULT_VEHTYPE" fromTaz="T1_680_1" toTaz="T1_101_2" departLane="free" departSpeed="max"/>
  <trip id="4034" depart="8.73" from="93631240" to="4786685" type="DEFAULT_VEHTYPE" fromTaz="T1_680_1" toTaz="T1_280_1" departLane="free" departSpeed="max"/>
  <trip id="2838" depart="8.75" from="957460911" to="966059358" type="DEFAULT_VEHTYPE" fromTaz="T1_680_1" toTaz="T1_17_1" departLane="free" departSpeed="max"/>
  <trip id="26" depart="8.77" from="8927038#1" to="394385111" type="DEFAULT_VEHTYPE" fromTaz="T1_680_1" toTaz="T1_101_1" departLane="free" departSpeed="max"/>
  <trip id="961" depart="8.78" from="93631240" to="515733343" type="DEFAULT_VEHTYPE" fromTaz="T1_680_1" toTaz="T1_101_2" departLane="free" departSpeed="max"/>
  <trip id="4561" depart="8.81" from="8926666" to="992584129" type="DEFAULT_VEHTYPE" fromTaz="T1_680_1" toTaz="T1_880_1" departLane="free" departSpeed="max"/>
  <trip id="962" depart="8.94" from="93631240" to="515733343" type="DEFAULT_VEHTYPE" fromTaz="T1_680_1" toTaz="T1_101_2" departLane="free" departSpeed="max"/>
  <trip id="2839" depart="9.00" from="957460911" to="966059358" type="DEFAULT_VEHTYPE" fromTaz="T1_680_1" toTaz="T1_17_1" departLane="free" departSpeed="max"/>
  <trip id="4562" depart="9.01" from="8926666" to="992584129" type="DEFAULT_VEHTYPE" fromTaz="T1_680_1" toTaz="T1_880_1" departLane="free" departSpeed="max"/>
  <trip id="963" depart="9.09" from="93631240" to="515733343" type="DEFAULT_VEHTYPE" fromTaz="T1_680_1" toTaz="T1_101_2" departLane="free" departSpeed="max"/>
  <trip id="27" depart="9.11" from="8927038#1" to="394385111" type="DEFAULT_VEHTYPE" fromTaz="T1_680_1" toTaz="T1_101_1" departLane="free" departSpeed="max"/>
  <trip id="4563" depart="9.22" from="8926666" to="992584129" type="DEFAULT_VEHTYPE" fromTaz="T1_680_1" toTaz="T1_880_1" departLane="free" departSpeed="max"/>
  <trip id="2840" depart="9.24" from="957460911" to="966059358" type="DEFAULT_VEHTYPE" fromTaz="T1_680_1" toTaz="T1_17_1" departLane="free" departSpeed="max"/>
  <trip id="964" depart="9.25" from="93631240" to="515733343" type="DEFAULT_VEHTYPE" fromTaz="T1_680_1" toTaz="T1_101_2" departLane="free" departSpeed="max"/>
  <trip id="4035" depart="9.34" from="93631240" to="4786685" type="DEFAULT_VEHTYPE" fromTaz="T1_680_1" toTaz="T1_280_1" departLane="free" departSpeed="max"/>
  <trip id="965" depart="9.41" from="93631240" to="515733343" type="DEFAULT_VEHTYPE" fromTaz="T1_680_1" toTaz="T1_101_2" departLane="free" departSpeed="max"/>