<routes>
    <vType id="DEFAULT_VEHTYPE" minGap="1.5" length="5" speedDev="0.0" carFollowModel="IDM"/>
</routes>
